*********************************************************************
*
* IBIS filename: lvc2g126.ibs
* Component: 74LVC2G126_DC
* Model: LVC_XGAHTRISTN_33
* Model Type: 3-state
* Corner: Typical
* Voltage Range (V): [3.3 3.0 3.6] (Typ, Min, Max)
* Temperature Range (degC): [35.0 -30.0 95.0] (Typ, Min, Max)
* SPICE subcircuit model created with pybis2spice version 1.0
* For more info, visit https://github.com/kamratia1/pybis2spice/
*
* Note: This model may only work in LTSpice.
* Stimulus Options: 
*	1 - Oscillate at given freq and duty
*	2 - Inverted Oscillate at given freq and duty
*	3 - Rising Edge with delay
*	4 - Falling Edge with delay
*	5 - Stuck High
*	6 - Stuck Low
*	7 - HighZ (if 3-State output)

*********************************************************************

.SUBCKT LVC_XGAHTRISTN_33-Output-Typical OUT params: stimulus=1 freq=10Meg duty=0.5 delay=0 

.param C_pkg = 3.093e-13
.param L_pkg = 1.585e-09
.param R_pkg = 0.08321
.param C_comp = 3.81e-12

R1 OUT MID {R_pkg}
L1 DIE MID {L_pkg}
C1 OUT 0 {C_pkg}
C2 DIE 0 {C_comp}

V2 GND_CLAMP_REF 0 0
B2 DIE GND_CLAMP_REF I = table(V(DIE), -5.5, -4.575, -5.4, -4.475, -5.3, -4.376, -5.2, -4.276, -5.1, -4.177, -5.0, -4.078, -4.9, -3.979, -4.8, -3.88, -4.7, -3.782, -4.6, -3.675, -4.5, -3.573, -4.4, -3.471, -4.3, -3.369, -4.2, -3.268, -4.1, -3.166, -4.0, -3.065, -3.9, -2.964, -3.8, -2.863, -3.7, -2.762, -3.6, -2.661, -3.5, -2.561, -3.4, -2.46, -3.3, -2.36, -3.2, -2.26, -3.1, -2.159, -3.0, -2.059, -2.9, -1.959, -2.8, -1.859, -2.7, -1.759, -2.6, -1.659, -2.5, -1.559, -2.4, -1.46, -2.3, -1.361, -2.2, -1.261, -2.1, -1.162, -2.0, -1.064, -1.9, -0.965446, -1.8, -0.867569, -1.7, -0.770221, -1.6, -0.673536, -1.5, -0.577719, -1.45, -0.530265, -1.4, -0.48328, -1.35, -0.437107, -1.3, -0.392872, -1.25, -0.355153, -1.2, -0.329121, -1.15, -0.306132, -1.1, -0.279919, -1.05, -0.247549, -1.0, -0.206222, -0.95, -0.153193, -0.9, -0.090015, -0.85, -0.035638, -0.8, -0.011363, -0.75, -0.004705, -0.7, -0.002761, -0.65, -0.001831, -0.6, -0.001205, -0.55, -0.000757487, -0.5, -0.000449968, -0.4, -0.000128376, -0.3, -2.2041e-05, -0.2, -8.02468e-07, -0.1, -1.8189e-08, 0.0, -2.877e-12, 0.2, 3.50289e-10, 0.4, 3.57426e-10, 0.6, 3.64756e-10, 0.8, 3.723e-10, 1.0, 3.80017e-10, 1.2, 3.87894e-10, 1.4, 3.95928e-10, 1.6, 4.04121e-10, 1.8, 4.12474e-10, 2.0, 4.20993e-10, 2.2, 4.29686e-10, 2.4, 4.38564e-10, 2.6, 4.47629e-10, 2.8, 4.56821e-10, 3.0, 4.66283e-10, 3.2, 4.76084e-10, 3.4, 4.87081e-10, 3.6, 4.87081e-10, 3.8, 4.87081e-10, 4.0, 4.87081e-10, 4.2, 4.87081e-10, 4.4, 4.87081e-10, 4.6, 4.87081e-10, 4.8, 4.87081e-10, 5.0, 4.87081e-10, 5.2, 4.87081e-10, 5.4, 4.87081e-10, 5.5, 4.87081e-10)

V3 PULLUP_REF 0 3.3
B3 DIE PULLUP_REF I={V(Ku)*table(V(DIE), -5.8, -0.1264, -5.7, -0.1259, -5.500000000000001, -0.1249, -5.3, -0.1238, -4.7, -0.1208, -4.5, -0.1197, -4.3, -0.1187, -4.1000000000000005, -0.1177, -3.9000000000000004, -0.1167, -3.7, -0.1156, -3.5, -0.1146, -3.3, -0.1136, -3.1000000000000005, -0.1126, -2.9000000000000004, -0.1115, -2.7, -0.1105, -2.5, -0.1095, -2.3, -0.1085, -2.1000000000000005, -0.1075, -1.9000000000000004, -0.1064, -1.7000000000000002, -0.1054, -1.5, -0.1044, -1.2999999999999998, -0.1034, -1.1000000000000005, -0.1023, -0.9000000000000004, -0.1013, -0.7000000000000002, -0.1003, -0.5, -0.09926, -0.30000000000000027, -0.09824, -0.10000000000000009, -0.09721, 0.09999999999999964, -0.09628, 0.2999999999999998, -0.09537, 0.5, -0.09437, 0.6999999999999997, -0.09325, 0.8999999999999999, -0.09196, 1.0999999999999996, -0.09037, 1.2999999999999998, -0.08829, 1.4999999999999998, -0.08543, 1.6999999999999997, -0.08152, 1.9, -0.07637, 2.0999999999999996, -0.06989, 2.3, -0.062, 2.5, -0.05264, 2.6999999999999997, -0.04178, 2.9, -0.02939, 3.0999999999999996, -0.01545, 3.3, -1.521e-10, 3.5, 0.01664, 3.6999999999999997, 0.03362, 3.9, 0.0496, 4.1, 0.06498, 4.3, 0.07994, 4.5, 0.09444, 4.699999999999999, 0.1085, 4.9, 0.1227, 5.1, 0.1372, 5.3, 0.1514, 5.5, 0.1652, 5.699999999999999, 0.1787, 5.9, 0.1919, 6.1, 0.2046, 6.3, 0.217, 6.5, 0.2286, 6.699999999999999, 0.2382, 6.9, 0.2475, 7.1, 0.2577, 7.3, 0.2679, 7.5, 0.2781, 7.7, 0.2882, 7.8999999999999995, 0.2981, 8.1, 0.3078, 8.3, 0.3174, 8.5, 0.3269, 8.7, 0.3362, 8.899999999999999, 0.3455, 9.1, 0.3546, 9.3, 0.3636, 9.5, 0.3725, 9.7, 0.3812, 9.899999999999999, 0.3898, 10.1, 0.398, 10.3, 0.406, 10.5, 0.4137, 10.7, 0.4209, 10.899999999999999, 0.4277, 11.1, 0.4338, 11.3, 0.4389)}
V4 PULLDOWN_REF 0 0
B4 DIE PULLDOWN_REF I={V(Kd)*table(V(DIE), -5.5, -0.06994, -5.3, -0.06994, -5.1, -0.06994, -4.9, -0.06994, -4.7, -0.06994, -4.5, -0.06994, -4.3, -0.06994, -4.1, -0.06994, -3.9, -0.06994, -3.7, -0.06994, -3.5, -0.06994, -3.3, -0.06994, -3.1, -0.06994, -2.9, -0.06994, -2.7, -0.06994, -2.5, -0.06994, -2.3, -0.06994, -2.1, -0.06994, -1.9, -0.06994, -1.7, -0.06994, -1.5, -0.06994, -1.45, -0.06994, -1.4, -0.06994, -1.35, -0.06994, -1.3, -0.06994, -1.25, -0.06994, -1.2, -0.06994, -1.15, -0.06994, -1.1, -0.06994, -1.05, -0.06994, -1.0, -0.06994, -0.95, -0.06994, -0.9, -0.06994, -0.85, -0.06994, -0.8, -0.06994, -0.75, -0.06993, -0.7, -0.06694, -0.65, -0.06319, -0.6, -0.05912, -0.55, -0.05484, -0.5, -0.05036, -0.45, -0.04572, -0.4, -0.04092, -0.35, -0.03601, -0.3, -0.03102, -0.25, -0.02596, -0.2, -0.02085, -0.15, -0.0157, -0.1, -0.0105, -0.05, -0.005269, 0.0, 4.79e-13, 0.1, 0.01038, 0.2, 0.02036, 0.3, 0.02995, 0.4, 0.03912, 0.5, 0.04788, 0.6, 0.05622, 0.7, 0.06414, 0.8, 0.07163, 0.9, 0.07868, 1.0, 0.0853, 1.3, 0.1025, 1.6, 0.1156, 1.9, 0.1246, 2.2, 0.1297, 2.5, 0.1318, 2.8, 0.1327, 3.1, 0.1334, 3.4, 0.1339, 3.7, 0.1345, 4.0, 0.1351, 4.3, 0.1356, 4.6, 0.1362, 4.9, 0.1367, 5.2, 0.1373, 5.5, 0.1378, 5.8, 0.1384, 6.1, 0.1389, 6.4, 0.1395, 6.7, 0.1401, 7.0, 0.1406, 7.3, 0.1412, 7.6, 0.1417, 7.9, 0.1423, 8.2, 0.1428, 8.5, 0.1434, 8.8, 0.1439, 9.1, 0.1445, 9.4, 0.1451, 9.7, 0.1456, 10.0, 0.1462, 10.3, 0.1467, 10.6, 0.1473, 10.9, 0.1478, 11.0, 0.148)}

.model SW SW(Ron=1n Roff=1G Vt=.5 Vh=-.4)


* Setup the Stimulus setting options for the Pullup Waveform (Ku)
V10 OSC 0 {if(stimulus_==1, 1, 0)}
V11 OSC_INV 0 {if(stimulus_==2, 1, 0)}
V12 RISE 0 {if(stimulus_==3, 1, 0)}
V13 FALL 0 {if(stimulus_==4, 1, 0)}
V14 HIGH 0 {if(stimulus_==5, 1, 0)}
V15 LOW 0 {if(stimulus_==6, 1, 0)}
S1 Ku K_U_OSC OSC 0 SW
S2 Ku K_U_OSC_INV OSC_INV 0 SW
S3 Ku K_U_RISE RISE 0 SW
S4 Ku K_U_FALL FALL 0 SW
S5 Ku K_U_HIGH HIGH 0 SW
S6 Ku K_U_LOW LOW 0 SW

* Setup the Stimulus setting options for the Pulldown Waveform (Kd)
S7 Kd K_D_OSC OSC 0 SW
S8 Kd K_D_OSC_INV OSC_INV 0 SW
S9 Kd K_D_RISE RISE 0 SW
S10 Kd K_D_FALL FALL 0 SW
S11 Kd K_D_HIGH HIGH 0 SW
S12 Kd K_D_LOW LOW 0 SW

* Define Oscillation Sources
.param calc_gap_pos = {(duty/freq) - 5.1e-09 - 1.1e-09}
.param calc_gap_neg = {((1-duty)/freq) - 7.7e-09 - 1.4e-09}

.param GAP_POS = {if(calc_gap_pos <= 0, 0.1e-12, calc_gap_pos)}
.param GAP_NEG = {if(calc_gap_neg <= 0, 0.1e-12, calc_gap_neg)}

.param stimulus_ = {if(stimulus < 1, 1, if(stimulus > 7, 7, stimulus)}

V16 K_U_OSC 0 PWL REPEAT FOREVER (0 4.987502619592943e-07 +0.01e-12 4.987502619592943e-07 +5e-11 2.258033247303989e-06 +5e-11 -1.77952123913967e-06 +4.9999999999999995e-11 -1.5150702998715273e-05 +5.000000000000001e-11 -2.7655287101242518e-05 +5.000000000000001e-11 -3.0868471514102255e-05 +4.999999999999998e-11 -2.7121385535662755e-05 +4.999999999999998e-11 -2.343239529407359e-05 +5.0000000000000034e-11 -2.569284375395692e-05 +4.999999999999998e-11 -3.1162702424320075e-05 +5.0000000000000034e-11 -2.3305411235486776e-05 +4.999999999999993e-11 2.8153774063958465e-05 +5.0000000000000034e-11 0.00015690042779324697 +5.0000000000000034e-11 0.00039729525871788716 +4.999999999999993e-11 0.0008174465238883201 +5.0000000000000034e-11 0.0016233796127586664 +5.0000000000000034e-11 0.00289324972390889 +4.999999999999993e-11 0.00372198055354376 +5.0000000000000034e-11 0.0014535255160894437 +5.0000000000000034e-11 -0.0057478611154705974 +5.0000000000000034e-11 -0.016260927177690863 +5.0000000000000034e-11 -0.026657722648969033 +4.999999999999983e-11 -0.03602337111858083 +5.0000000000000034e-11 -0.045079257036324344 +5.0000000000000034e-11 -0.05187637019164636 +5.0000000000000034e-11 -0.04807135933058277 +5.0000000000000034e-11 -0.02087173539106991 +5.0000000000000034e-11 0.029627357147550822 +4.999999999999983e-11 0.08336610105004552 +5.0000000000000034e-11 0.1541514683466619 +5.0000000000000034e-11 0.2555058257003607 +5.0000000000000034e-11 0.35846635456648973 +5.0000000000000034e-11 0.4436737003451791 +5.0000000000000034e-11 0.5127316840928275 +4.999999999999983e-11 0.5743616972208317 +5.0000000000000034e-11 0.6342477788673522 +5.0000000000000034e-11 0.6894727823066891 +5.0000000000000034e-11 0.7300652255497934 +5.0000000000000034e-11 0.763413005270098 +5.0000000000000034e-11 0.7938010064582146 +5.0000000000000034e-11 0.8176801835607199 +5.0000000000000034e-11 0.8394576047226332 +5.0000000000000034e-11 0.8603408489234279 +4.999999999999962e-11 0.8786608644926319 +5.0000000000000034e-11 0.8918132361991498 +5.0000000000000034e-11 0.9038404053142938 +5.0000000000000034e-11 0.9151917352258815 +5.0000000000000034e-11 0.9246851365527274 +5.0000000000000034e-11 0.9333918093153114 +5.0000000000000034e-11 0.9395919411367508 +5.0000000000000034e-11 0.9463201737123575 +5.0000000000000034e-11 0.9502245152407152 +5.0000000000000034e-11 0.9560292061965068 +5.0000000000000034e-11 0.9593220171241243 +5.0000000000000034e-11 0.9640884755404158 +4.999999999999962e-11 0.9667414305950357 +5.0000000000000034e-11 0.970575446495931 +5.0000000000000034e-11 0.97331457634464 +5.0000000000000034e-11 0.974679830925399 +5.0000000000000034e-11 0.9771382085908189 +5.0000000000000034e-11 0.9799720492592079 +1.0000000000000007e-10 0.9841916842668071 +1.0000000000000007e-10 0.9863252655393664 +1.0000000000000007e-10 0.9880795971144083 +9.999999999999965e-11 0.9902168699411229 +1.0000000000000007e-10 0.9916621286007806 +1.0000000000000007e-10 0.9931104655664313 +1.0000000000000007e-10 0.9945618906834441 +1.0000000000000007e-10 0.9960164138392178 +1.0000000000000007e-10 0.9959851080482065 +1.0000000000000007e-10 0.9955935315381702 +1.0000000000000007e-10 0.9963007502707776 +1.0000000000000007e-10 0.997050040806951 +1.999999999999993e-10 0.9977595726256205 +1.0000000000000007e-10 0.9985096641744422 +4.0000000000000027e-10 0.9992215173625967 +1.0000000000000007e-10 0.9995218750729615 +1.2499999999999996e-09 1.0006865945169032 +2.500000000000006e-10 1.0009872740060857 +{GAP_POS} 1.0009872740060857 +4.5e-10 1.0021548141667895 +5.0000000000000034e-11 1.0006498043758165 +4.999999999999993e-11 1.0021694720119767 +5.0000000000000034e-11 1.004068147367247 +5.0000000000000034e-11 1.0059520513875648 +4.999999999999993e-11 1.0098258339360684 +5.0000000000000034e-11 1.0148121625909587 +5.0000000000000034e-11 1.016970284377632 +4.999999999999993e-11 1.0160181211958772 +5.0000000000000034e-11 1.0102048720520702 +5.0000000000000034e-11 1.0009086088181587 +5.0000000000000034e-11 0.9878735551788332 +5.0000000000000034e-11 0.9692477547030791 +4.999999999999983e-11 0.944923198704923 +5.0000000000000034e-11 0.913878793958791 +5.0000000000000034e-11 0.8784393488547385 +5.0000000000000034e-11 0.8336345947765055 +5.0000000000000034e-11 0.7712883803904058 +5.0000000000000034e-11 0.6739149287673375 +4.999999999999983e-11 0.5375296080951134 +5.0000000000000034e-11 0.4051524561601979 +5.0000000000000034e-11 0.28562484111662967 +5.0000000000000034e-11 0.22197914268297728 +5.0000000000000034e-11 0.21761434235260177 +5.0000000000000034e-11 0.21092584824780547 +4.999999999999983e-11 0.19318436955668022 +5.0000000000000034e-11 0.17224345494984789 +5.0000000000000034e-11 0.15004866365383907 +5.0000000000000034e-11 0.12621458957488235 +5.0000000000000034e-11 0.10491308687240372 +5.0000000000000034e-11 0.08581677085051069 +5.0000000000000034e-11 0.06883881498497564 +5.0000000000000034e-11 0.05431042898868683 +5.0000000000000034e-11 0.04214354442286326 +4.999999999999962e-11 0.03214222755532711 +5.0000000000000034e-11 0.024416176209340845 +5.0000000000000034e-11 0.01903002025586657 +5.0000000000000034e-11 0.015588209719990868 +5.0000000000000034e-11 0.013334168217462692 +5.0000000000000034e-11 0.011547616135116151 +5.0000000000000034e-11 0.009946212685990436 +5.0000000000000034e-11 0.008541837341005502 +5.0000000000000034e-11 0.007358061193597458 +5.0000000000000034e-11 0.006362616094274315 +5.0000000000000034e-11 0.005512137085587668 +5.0000000000000034e-11 0.004778031563232817 +4.999999999999962e-11 0.00413969116938949 +5.0000000000000034e-11 0.0035820311809078888 +5.0000000000000034e-11 0.0030956219942562626 +5.0000000000000034e-11 0.0026715725791973855 +5.0000000000000034e-11 0.0023018412354706844 +5.0000000000000034e-11 0.0019920164875626934 +1.0000000000000007e-10 0.0014635304396151613 +1.0000000000000007e-10 0.001063740496419732 +1.0000000000000007e-10 0.0007616446329817288 +9.999999999999965e-11 0.0005336248361782432 +1.0000000000000007e-10 0.0003620773646677872 +1.0000000000000007e-10 0.00023374541366816753 +1.0000000000000007e-10 0.00013829123296355653 +1.0000000000000007e-10 6.768061501877606e-05 +1.0000000000000007e-10 1.5897492145103703e-05 +1.0000000000000007e-10 -2.1666172069228744e-05 +1.0000000000000007e-10 -4.846606921215831e-05 +1.0000000000000007e-10 -6.686230737001636e-05 +9.999999999999924e-11 -7.8967711618048e-05 +1.0000000000000007e-10 -8.636391231558422e-05 +1.0000000000000007e-10 -9.023743871009715e-05 +1.0000000000000007e-10 -9.150773012434516e-05 +1.0000000000000007e-10 -9.089515829958678e-05 +1.0000000000000007e-10 -8.89489567277627e-05 +1.0000000000000007e-10 -8.607463750711471e-05 +1.0000000000000007e-10 -8.25244038895239e-05 +2.4999999999999976e-10 -7.251105070747758e-05 +2.4999999999999976e-10 -6.21733493832607e-05 +2.500000000000006e-10 -5.255383021339446e-05 +2.4999999999999976e-10 -4.4036985317603966e-05 +2.4999999999999976e-10 -3.670567326091538e-05 +2.500000000000006e-10 -3.0498955711201145e-05 +2.4999999999999976e-10 -2.5295685138673152e-05 +2.4999999999999976e-10 -2.0959832729022663e-05 +2.500000000000006e-10 -1.735726704562315e-05 +2.4999999999999893e-10 -1.4369625460953272e-05 +2.500000000000006e-10 -1.1895933365988382e-05 +2.500000000000006e-10 -9.84766522190445e-06 +2.4999999999999893e-10 -8.153494865650744e-06 +2.500000000000006e-10 -6.752150737875505e-06 +4.999999999999995e-10 -4.631397155115284e-06 +2.500000000000006e-10 -3.768049220134653e-06 +{GAP_NEG} -3.768049220134653e-06) ENDREPEAT
V17 K_U_HIGH 0 1
V18 K_U_LOW 0 0
V19 K_U_OSC_INV 0 PWL REPEAT FOREVER (0 1.0021548141667895 +0.01e-12 1.0021548141667895 +5.0000000000000034e-11 1.0006498043758165 +4.999999999999993e-11 1.0021694720119767 +5.0000000000000034e-11 1.004068147367247 +5.0000000000000034e-11 1.0059520513875648 +4.999999999999993e-11 1.0098258339360684 +5.0000000000000034e-11 1.0148121625909587 +5.0000000000000034e-11 1.016970284377632 +4.999999999999993e-11 1.0160181211958772 +5.0000000000000034e-11 1.0102048720520702 +5.0000000000000034e-11 1.0009086088181587 +5.0000000000000034e-11 0.9878735551788332 +5.0000000000000034e-11 0.9692477547030791 +4.999999999999983e-11 0.944923198704923 +5.0000000000000034e-11 0.913878793958791 +5.0000000000000034e-11 0.8784393488547385 +5.0000000000000034e-11 0.8336345947765055 +5.0000000000000034e-11 0.7712883803904058 +5.0000000000000034e-11 0.6739149287673375 +4.999999999999983e-11 0.5375296080951134 +5.0000000000000034e-11 0.4051524561601979 +5.0000000000000034e-11 0.28562484111662967 +5.0000000000000034e-11 0.22197914268297728 +5.0000000000000034e-11 0.21761434235260177 +5.0000000000000034e-11 0.21092584824780547 +4.999999999999983e-11 0.19318436955668022 +5.0000000000000034e-11 0.17224345494984789 +5.0000000000000034e-11 0.15004866365383907 +5.0000000000000034e-11 0.12621458957488235 +5.0000000000000034e-11 0.10491308687240372 +5.0000000000000034e-11 0.08581677085051069 +5.0000000000000034e-11 0.06883881498497564 +5.0000000000000034e-11 0.05431042898868683 +5.0000000000000034e-11 0.04214354442286326 +4.999999999999962e-11 0.03214222755532711 +5.0000000000000034e-11 0.024416176209340845 +5.0000000000000034e-11 0.01903002025586657 +5.0000000000000034e-11 0.015588209719990868 +5.0000000000000034e-11 0.013334168217462692 +5.0000000000000034e-11 0.011547616135116151 +5.0000000000000034e-11 0.009946212685990436 +5.0000000000000034e-11 0.008541837341005502 +5.0000000000000034e-11 0.007358061193597458 +5.0000000000000034e-11 0.006362616094274315 +5.0000000000000034e-11 0.005512137085587668 +5.0000000000000034e-11 0.004778031563232817 +4.999999999999962e-11 0.00413969116938949 +5.0000000000000034e-11 0.0035820311809078888 +5.0000000000000034e-11 0.0030956219942562626 +5.0000000000000034e-11 0.0026715725791973855 +5.0000000000000034e-11 0.0023018412354706844 +5.0000000000000034e-11 0.0019920164875626934 +1.0000000000000007e-10 0.0014635304396151613 +1.0000000000000007e-10 0.001063740496419732 +1.0000000000000007e-10 0.0007616446329817288 +9.999999999999965e-11 0.0005336248361782432 +1.0000000000000007e-10 0.0003620773646677872 +1.0000000000000007e-10 0.00023374541366816753 +1.0000000000000007e-10 0.00013829123296355653 +1.0000000000000007e-10 6.768061501877606e-05 +1.0000000000000007e-10 1.5897492145103703e-05 +1.0000000000000007e-10 -2.1666172069228744e-05 +1.0000000000000007e-10 -4.846606921215831e-05 +1.0000000000000007e-10 -6.686230737001636e-05 +9.999999999999924e-11 -7.8967711618048e-05 +1.0000000000000007e-10 -8.636391231558422e-05 +1.0000000000000007e-10 -9.023743871009715e-05 +1.0000000000000007e-10 -9.150773012434516e-05 +1.0000000000000007e-10 -9.089515829958678e-05 +1.0000000000000007e-10 -8.89489567277627e-05 +1.0000000000000007e-10 -8.607463750711471e-05 +1.0000000000000007e-10 -8.25244038895239e-05 +2.4999999999999976e-10 -7.251105070747758e-05 +2.4999999999999976e-10 -6.21733493832607e-05 +2.500000000000006e-10 -5.255383021339446e-05 +2.4999999999999976e-10 -4.4036985317603966e-05 +2.4999999999999976e-10 -3.670567326091538e-05 +2.500000000000006e-10 -3.0498955711201145e-05 +2.4999999999999976e-10 -2.5295685138673152e-05 +2.4999999999999976e-10 -2.0959832729022663e-05 +2.500000000000006e-10 -1.735726704562315e-05 +2.4999999999999893e-10 -1.4369625460953272e-05 +2.500000000000006e-10 -1.1895933365988382e-05 +2.500000000000006e-10 -9.84766522190445e-06 +2.4999999999999893e-10 -8.153494865650744e-06 +2.500000000000006e-10 -6.752150737875505e-06 +4.999999999999995e-10 -4.631397155115284e-06 +2.500000000000006e-10 -3.768049220134653e-06 +{GAP_POS} -3.768049220134653e-06 +0.0 4.987502619592943e-07 +5e-11 2.258033247303989e-06 +5e-11 -1.77952123913967e-06 +4.9999999999999995e-11 -1.5150702998715273e-05 +5.000000000000001e-11 -2.7655287101242518e-05 +5.000000000000001e-11 -3.0868471514102255e-05 +4.999999999999998e-11 -2.7121385535662755e-05 +4.999999999999998e-11 -2.343239529407359e-05 +5.0000000000000034e-11 -2.569284375395692e-05 +4.999999999999998e-11 -3.1162702424320075e-05 +5.0000000000000034e-11 -2.3305411235486776e-05 +4.999999999999993e-11 2.8153774063958465e-05 +5.0000000000000034e-11 0.00015690042779324697 +5.0000000000000034e-11 0.00039729525871788716 +4.999999999999993e-11 0.0008174465238883201 +5.0000000000000034e-11 0.0016233796127586664 +5.0000000000000034e-11 0.00289324972390889 +4.999999999999993e-11 0.00372198055354376 +5.0000000000000034e-11 0.0014535255160894437 +5.0000000000000034e-11 -0.0057478611154705974 +5.0000000000000034e-11 -0.016260927177690863 +5.0000000000000034e-11 -0.026657722648969033 +4.999999999999983e-11 -0.03602337111858083 +5.0000000000000034e-11 -0.045079257036324344 +5.0000000000000034e-11 -0.05187637019164636 +5.0000000000000034e-11 -0.04807135933058277 +5.0000000000000034e-11 -0.02087173539106991 +5.0000000000000034e-11 0.029627357147550822 +4.999999999999983e-11 0.08336610105004552 +5.0000000000000034e-11 0.1541514683466619 +5.0000000000000034e-11 0.2555058257003607 +5.0000000000000034e-11 0.35846635456648973 +5.0000000000000034e-11 0.4436737003451791 +5.0000000000000034e-11 0.5127316840928275 +4.999999999999983e-11 0.5743616972208317 +5.0000000000000034e-11 0.6342477788673522 +5.0000000000000034e-11 0.6894727823066891 +5.0000000000000034e-11 0.7300652255497934 +5.0000000000000034e-11 0.763413005270098 +5.0000000000000034e-11 0.7938010064582146 +5.0000000000000034e-11 0.8176801835607199 +5.0000000000000034e-11 0.8394576047226332 +5.0000000000000034e-11 0.8603408489234279 +4.999999999999962e-11 0.8786608644926319 +5.0000000000000034e-11 0.8918132361991498 +5.0000000000000034e-11 0.9038404053142938 +5.0000000000000034e-11 0.9151917352258815 +5.0000000000000034e-11 0.9246851365527274 +5.0000000000000034e-11 0.9333918093153114 +5.0000000000000034e-11 0.9395919411367508 +5.0000000000000034e-11 0.9463201737123575 +5.0000000000000034e-11 0.9502245152407152 +5.0000000000000034e-11 0.9560292061965068 +5.0000000000000034e-11 0.9593220171241243 +5.0000000000000034e-11 0.9640884755404158 +4.999999999999962e-11 0.9667414305950357 +5.0000000000000034e-11 0.970575446495931 +5.0000000000000034e-11 0.97331457634464 +5.0000000000000034e-11 0.974679830925399 +5.0000000000000034e-11 0.9771382085908189 +5.0000000000000034e-11 0.9799720492592079 +1.0000000000000007e-10 0.9841916842668071 +1.0000000000000007e-10 0.9863252655393664 +1.0000000000000007e-10 0.9880795971144083 +9.999999999999965e-11 0.9902168699411229 +1.0000000000000007e-10 0.9916621286007806 +1.0000000000000007e-10 0.9931104655664313 +1.0000000000000007e-10 0.9945618906834441 +1.0000000000000007e-10 0.9960164138392178 +1.0000000000000007e-10 0.9959851080482065 +1.0000000000000007e-10 0.9955935315381702 +1.0000000000000007e-10 0.9963007502707776 +1.0000000000000007e-10 0.997050040806951 +1.999999999999993e-10 0.9977595726256205 +1.0000000000000007e-10 0.9985096641744422 +4.0000000000000027e-10 0.9992215173625967 +1.0000000000000007e-10 0.9995218750729615 +1.2499999999999996e-09 1.0006865945169032 +2.500000000000006e-10 1.0009872740060857 +{GAP_NEG} 1.0009872740060857) ENDREPEAT
V20 K_U_RISE 0 PWL({delay}, 4.987502619592943e-07, {delay+5e-11}, 2.258033247303989e-06, {delay+1e-10}, -1.77952123913967e-06, {delay+1.5e-10}, -1.5150702998715273e-05, {delay+2e-10}, -2.7655287101242518e-05, {delay+2.5e-10}, -3.0868471514102255e-05, {delay+3e-10}, -2.7121385535662755e-05, {delay+3.5e-10}, -2.343239529407359e-05, {delay+4e-10}, -2.569284375395692e-05, {delay+4.5e-10}, -3.1162702424320075e-05, {delay+5e-10}, -2.3305411235486776e-05, {delay+5.5e-10}, 2.8153774063958465e-05, {delay+6e-10}, 0.00015690042779324697, {delay+6.5e-10}, 0.00039729525871788716, {delay+7e-10}, 0.0008174465238883201, {delay+7.5e-10}, 0.0016233796127586664, {delay+8e-10}, 0.00289324972390889, {delay+8.5e-10}, 0.00372198055354376, {delay+9e-10}, 0.0014535255160894437, {delay+9.5e-10}, -0.0057478611154705974, {delay+1e-09}, -0.016260927177690863, {delay+1.05e-09}, -0.026657722648969033, {delay+1.1e-09}, -0.03602337111858083, {delay+1.15e-09}, -0.045079257036324344, {delay+1.2e-09}, -0.05187637019164636, {delay+1.25e-09}, -0.04807135933058277, {delay+1.3e-09}, -0.02087173539106991, {delay+1.35e-09}, 0.029627357147550822, {delay+1.4e-09}, 0.08336610105004552, {delay+1.45e-09}, 0.1541514683466619, {delay+1.5e-09}, 0.2555058257003607, {delay+1.55e-09}, 0.35846635456648973, {delay+1.6e-09}, 0.4436737003451791, {delay+1.65e-09}, 0.5127316840928275, {delay+1.7e-09}, 0.5743616972208317, {delay+1.75e-09}, 0.6342477788673522, {delay+1.8e-09}, 0.6894727823066891, {delay+1.85e-09}, 0.7300652255497934, {delay+1.9e-09}, 0.763413005270098, {delay+1.95e-09}, 0.7938010064582146, {delay+2e-09}, 0.8176801835607199, {delay+2.05e-09}, 0.8394576047226332, {delay+2.1e-09}, 0.8603408489234279, {delay+2.15e-09}, 0.8786608644926319, {delay+2.2e-09}, 0.8918132361991498, {delay+2.25e-09}, 0.9038404053142938, {delay+2.3e-09}, 0.9151917352258815, {delay+2.35e-09}, 0.9246851365527274, {delay+2.4e-09}, 0.9333918093153114, {delay+2.45e-09}, 0.9395919411367508, {delay+2.5e-09}, 0.9463201737123575, {delay+2.55e-09}, 0.9502245152407152, {delay+2.6e-09}, 0.9560292061965068, {delay+2.65e-09}, 0.9593220171241243, {delay+2.7e-09}, 0.9640884755404158, {delay+2.75e-09}, 0.9667414305950357, {delay+2.8e-09}, 0.970575446495931, {delay+2.85e-09}, 0.97331457634464, {delay+2.9e-09}, 0.974679830925399, {delay+2.95e-09}, 0.9771382085908189, {delay+3e-09}, 0.9799720492592079, {delay+3.1e-09}, 0.9841916842668071, {delay+3.2e-09}, 0.9863252655393664, {delay+3.3e-09}, 0.9880795971144083, {delay+3.4e-09}, 0.9902168699411229, {delay+3.5e-09}, 0.9916621286007806, {delay+3.6e-09}, 0.9931104655664313, {delay+3.7e-09}, 0.9945618906834441, {delay+3.8e-09}, 0.9960164138392178, {delay+3.9e-09}, 0.9959851080482065, {delay+4e-09}, 0.9955935315381702, {delay+4.1e-09}, 0.9963007502707776, {delay+4.2e-09}, 0.997050040806951, {delay+4.4e-09}, 0.9977595726256205, {delay+4.5e-09}, 0.9985096641744422, {delay+4.9e-09}, 0.9992215173625967, {delay+5e-09}, 0.9995218750729615, {delay+6.25e-09}, 1.0006865945169032, {delay+6.5e-09}, 1.0009872740060857)
V21 K_U_FALL 0 PWL({delay}, 1.0021548141667895, {delay+5e-10}, 1.0006498043758165, {delay+5.5e-10}, 1.0021694720119767, {delay+6e-10}, 1.004068147367247, {delay+6.5e-10}, 1.0059520513875648, {delay+7e-10}, 1.0098258339360684, {delay+7.5e-10}, 1.0148121625909587, {delay+8e-10}, 1.016970284377632, {delay+8.5e-10}, 1.0160181211958772, {delay+9e-10}, 1.0102048720520702, {delay+9.5e-10}, 1.0009086088181587, {delay+1e-09}, 0.9878735551788332, {delay+1.05e-09}, 0.9692477547030791, {delay+1.1e-09}, 0.944923198704923, {delay+1.15e-09}, 0.913878793958791, {delay+1.2e-09}, 0.8784393488547385, {delay+1.25e-09}, 0.8336345947765055, {delay+1.3e-09}, 0.7712883803904058, {delay+1.35e-09}, 0.6739149287673375, {delay+1.4e-09}, 0.5375296080951134, {delay+1.45e-09}, 0.4051524561601979, {delay+1.5e-09}, 0.28562484111662967, {delay+1.55e-09}, 0.22197914268297728, {delay+1.6e-09}, 0.21761434235260177, {delay+1.65e-09}, 0.21092584824780547, {delay+1.7e-09}, 0.19318436955668022, {delay+1.75e-09}, 0.17224345494984789, {delay+1.8e-09}, 0.15004866365383907, {delay+1.85e-09}, 0.12621458957488235, {delay+1.9e-09}, 0.10491308687240372, {delay+1.95e-09}, 0.08581677085051069, {delay+2e-09}, 0.06883881498497564, {delay+2.05e-09}, 0.05431042898868683, {delay+2.1e-09}, 0.04214354442286326, {delay+2.15e-09}, 0.03214222755532711, {delay+2.2e-09}, 0.024416176209340845, {delay+2.25e-09}, 0.01903002025586657, {delay+2.3e-09}, 0.015588209719990868, {delay+2.35e-09}, 0.013334168217462692, {delay+2.4e-09}, 0.011547616135116151, {delay+2.45e-09}, 0.009946212685990436, {delay+2.5e-09}, 0.008541837341005502, {delay+2.55e-09}, 0.007358061193597458, {delay+2.6e-09}, 0.006362616094274315, {delay+2.65e-09}, 0.005512137085587668, {delay+2.7e-09}, 0.004778031563232817, {delay+2.75e-09}, 0.00413969116938949, {delay+2.8e-09}, 0.0035820311809078888, {delay+2.85e-09}, 0.0030956219942562626, {delay+2.9e-09}, 0.0026715725791973855, {delay+2.95e-09}, 0.0023018412354706844, {delay+3e-09}, 0.0019920164875626934, {delay+3.1e-09}, 0.0014635304396151613, {delay+3.2e-09}, 0.001063740496419732, {delay+3.3e-09}, 0.0007616446329817288, {delay+3.4e-09}, 0.0005336248361782432, {delay+3.5e-09}, 0.0003620773646677872, {delay+3.6e-09}, 0.00023374541366816753, {delay+3.7e-09}, 0.00013829123296355653, {delay+3.8e-09}, 6.768061501877606e-05, {delay+3.9e-09}, 1.5897492145103703e-05, {delay+4e-09}, -2.1666172069228744e-05, {delay+4.1e-09}, -4.846606921215831e-05, {delay+4.2e-09}, -6.686230737001636e-05, {delay+4.3e-09}, -7.8967711618048e-05, {delay+4.4e-09}, -8.636391231558422e-05, {delay+4.5e-09}, -9.023743871009715e-05, {delay+4.6e-09}, -9.150773012434516e-05, {delay+4.7e-09}, -9.089515829958678e-05, {delay+4.8e-09}, -8.89489567277627e-05, {delay+4.9e-09}, -8.607463750711471e-05, {delay+5e-09}, -8.25244038895239e-05, {delay+5.25e-09}, -7.251105070747758e-05, {delay+5.5e-09}, -6.21733493832607e-05, {delay+5.75e-09}, -5.255383021339446e-05, {delay+6e-09}, -4.4036985317603966e-05, {delay+6.25e-09}, -3.670567326091538e-05, {delay+6.5e-09}, -3.0498955711201145e-05, {delay+6.75e-09}, -2.5295685138673152e-05, {delay+7e-09}, -2.0959832729022663e-05, {delay+7.25e-09}, -1.735726704562315e-05, {delay+7.5e-09}, -1.4369625460953272e-05, {delay+7.75e-09}, -1.1895933365988382e-05, {delay+8e-09}, -9.84766522190445e-06, {delay+8.25e-09}, -8.153494865650744e-06, {delay+8.5e-09}, -6.752150737875505e-06, {delay+9e-09}, -4.631397155115284e-06, {delay+9.25e-09}, -3.768049220134653e-06)