Version 4
SHEET 1 2068 1396
WIRE -432 304 -608 304
WIRE -240 304 -432 304
WIRE -112 304 -160 304
WIRE -32 304 -112 304
WIRE 320 304 48 304
WIRE 624 304 416 304
WIRE 752 304 624 304
WIRE 320 336 240 336
WIRE 496 336 416 336
WIRE -112 368 -112 304
WIRE 240 384 240 336
WIRE 496 384 496 336
WIRE -112 496 -112 432
WIRE -432 624 -624 624
WIRE -240 624 -432 624
WIRE -112 624 -160 624
WIRE -32 624 -112 624
WIRE 320 624 48 624
WIRE 624 624 416 624
WIRE 752 624 624 624
WIRE 320 656 240 656
WIRE 496 656 416 656
WIRE -112 688 -112 624
WIRE 240 704 240 656
WIRE 496 704 496 656
WIRE -112 816 -112 752
WIRE -432 944 -624 944
WIRE -224 944 -432 944
WIRE -112 944 -144 944
WIRE -32 944 -112 944
WIRE 336 944 48 944
WIRE 624 944 432 944
WIRE 752 944 624 944
WIRE 336 976 256 976
WIRE 512 976 432 976
WIRE -112 1008 -112 944
WIRE 256 1024 256 976
WIRE 512 1024 512 976
WIRE -112 1136 -112 1072
FLAG 624 304 rcv_fast
FLAG 624 624 rcv_typ
FLAG 624 944 rcv_slow
FLAG -432 304 src_fast
FLAG -432 624 src_typ
FLAG -432 944 src_slow
FLAG 240 704 0
FLAG 496 704 0
FLAG 256 1024 0
FLAG 512 1024 0
FLAG 240 384 0
FLAG 496 384 0
FLAG -112 496 0
FLAG -112 816 0
FLAG -112 1136 0
SYMBOL res -144 288 R90
WINDOW 0 0 56 VBottom 2
WINDOW 3 32 56 VTop 2
SYMATTR InstName R1
SYMATTR Value {Rser}
SYMBOL res -144 608 R90
WINDOW 0 0 56 VBottom 2
WINDOW 3 32 56 VTop 2
SYMATTR InstName R2
SYMATTR Value {Rser}
SYMBOL res -128 928 R90
WINDOW 0 0 56 VBottom 2
WINDOW 3 32 56 VTop 2
SYMATTR InstName R3
SYMATTR Value {Rser}
SYMBOL tline 368 640 R0
SYMATTR InstName T3
SYMATTR Value Td={Td} Z0={Zo}
SYMBOL tline 384 960 R0
SYMATTR InstName T4
SYMATTR Value Td={Td} Z0={Zo}
SYMBOL tline 368 320 R0
SYMATTR InstName T1
SYMATTR Value Td={Td} Z0={Zo}
SYMBOL LVC2T45_IO_A_33-Input-Typical 752 560 R0
SYMATTR InstName U1
SYMBOL LVC2T45_IO_A_33-Output-Typical -656 656 R0
SYMATTR InstName U2
SYMATTR SpiceLine stimulus={stimulus} freq={freq} duty={duty} delay={delay}
SYMBOL LVC2T45_IO_A_33-Input-FastStrong 752 240 R0
SYMATTR InstName U3
SYMBOL LVC2T45_IO_A_33-Input-WeakSlow 752 880 R0
SYMATTR InstName U4
SYMBOL LVC2T45_IO_A_33-Output-FastStrong -640 336 R0
SYMATTR InstName U5
SYMATTR SpiceLine stimulus={stimulus} freq={freq} duty={duty} delay={delay}
SYMBOL LVC2T45_IO_A_33-Output-WeakSlow -656 976 R0
SYMATTR InstName U6
SYMATTR SpiceLine stimulus={stimulus} freq={freq} duty={duty} delay={delay}
SYMBOL cap -128 368 R0
SYMATTR InstName C1
SYMATTR Value 2p
SYMBOL cap -128 688 R0
SYMATTR InstName C2
SYMATTR Value 2p
SYMBOL cap -128 1008 R0
SYMATTR InstName C3
SYMATTR Value 2p
SYMBOL res 64 288 R90
WINDOW 0 0 56 VBottom 2
WINDOW 3 32 56 VTop 2
SYMATTR InstName R4
SYMATTR Value {Rser}
SYMBOL res 64 608 R90
WINDOW 0 0 56 VBottom 2
WINDOW 3 32 56 VTop 2
SYMATTR InstName R5
SYMATTR Value {Rser}
SYMBOL res 64 928 R90
WINDOW 0 0 56 VBottom 2
WINDOW 3 32 56 VTop 2
SYMATTR InstName R6
SYMATTR Value {Rser}
TEXT 1464 1256 Left 2 !.tran 0 100n 0 2p
TEXT 1480 200 Left 2 !.step param Rser list 5 18 33
TEXT 1480 264 Left 2 !.param Td = 5n
TEXT 1480 328 Left 2 !.param Zo = 50
TEXT 1488 576 Left 2 !.param stimulus = 1
TEXT 1488 640 Left 2 !.param freq = 10Meg
TEXT 1488 712 Left 2 !.param duty = 0.5
TEXT 1488 776 Left 2 !.param delay=20n
TEXT 1448 16 Left 3 ;Transmission Line Properties
TEXT 1448 72 Left 2 ;Rser - Series Termination resistor value\nTd - Transmission line delay\nZo - Characteristic impedance
TEXT 1456 856 Left 2 ;Stimulus Options\n* 1 - Oscillate at given freq and duty\n* 2 - Inverted Oscillate at given freq and duty\n* 3 - Rising Edge with delay\n* 4 - Falling Edge with delay\n* 5 - Stuck High\n* 6 - Stuck Low\n* 7 - HighZ (if 3-State output)
TEXT 1456 1192 Left 3 ;Transient Simulation parameters
TEXT 1472 496 Left 3 ;Waveform Stimulus
RECTANGLE Normal 2064 1296 1424 1152 2
RECTANGLE Normal 2064 1104 1424 448 2
RECTANGLE Normal 2064 384 1424 -32 2
