*********************************************************************
*
* IBIS filename: sn74lvc2t45.ibs
* Component: LVC2T45_DCT
* Model: LVC2T45_IO_A_33
* Model Type: I/O
* Corner: WeakSlow
* Voltage Range (V): [3.3 3.0 3.6] (Typ, Min, Max)
* Temperature Range (degC): [40.0 -40.0 100.0] (Typ, Min, Max)
* SPICE subcircuit model created with pybis2spice version 1.0
* For more info, visit https://github.com/kamratia1/pybis2spice/
*
* Note: This model may only work in LTSpice.
* Stimulus Options: 
*	1 - Oscillate at given freq and duty
*	2 - Inverted Oscillate at given freq and duty
*	3 - Rising Edge with delay
*	4 - Falling Edge with delay
*	5 - Stuck High
*	6 - Stuck Low
*	7 - HighZ (if 3-State output)

*********************************************************************

.SUBCKT LVC2T45_IO_A_33-Output-WeakSlow OUT params: stimulus=1 freq=10Meg duty=0.5 delay=0 

.param C_pkg = 2.21e-13
.param L_pkg = 1.666e-09
.param R_pkg = 0.028
.param C_comp = 5.51e-12

R1 OUT MID {R_pkg}
L1 DIE MID {L_pkg}
C1 OUT 0 {C_pkg}
C2 DIE 0 {C_comp}

V2 GND_CLAMP_REF 0 0
B2 DIE GND_CLAMP_REF I = table(V(DIE), -5.5, -0.8324, -5.245, -0.78558, -5.005, -0.74158, -4.775, -0.69948, -4.545, -0.65743, -4.335, -0.61911, -4.115, -0.57904, -3.905, -0.54087, -3.71, -0.5055, -3.52, -0.47111, -3.335, -0.43772, -3.24, -0.42061, -3.155, -0.40532, -3.065, -0.38915, -2.985, -0.37481, -2.895, -0.3587, -2.815, -0.3444, -2.735, -0.33014, -2.655, -0.31589, -2.575, -0.30168, -2.505, -0.28927, -2.43, -0.27601, -2.36, -0.26366, -2.285, -0.25045, -2.215, -0.23817, -2.145, -0.22591, -2.075, -0.2137, -2.01, -0.20239, -1.94, -0.19026, -1.875, -0.17904, -1.815, -0.16872, -1.755, -0.15845, -1.695, -0.14822, -1.635, -0.13804, -1.58, -0.12876, -1.525, -0.11954, -1.475, -0.1112, -1.425, -0.10291, -1.375, -0.094686, -1.33, -0.087338, -1.285, -0.080049, -1.24, -0.072828, -1.2, -0.066472, -1.165, -0.060966, -1.13, -0.055519, -1.095, -0.050138, -1.065, -0.045586, -1.04, -0.04184, -1.015, -0.038144, -1.0, -0.035953, -0.99, -0.034504, -0.98, -0.033065, -0.97, -0.031637, -0.96, -0.03022, -0.95, -0.028816, -0.94, -0.027424, -0.93, -0.026046, -0.92, -0.024683, -0.915, -0.024008, -0.905, -0.022669, -0.9, -0.022005, -0.89, -0.020693, -0.88, -0.0194, -0.87, -0.018129, -0.86, -0.01688, -0.855, -0.016265, -0.845, -0.015055, -0.83, -0.013294, -0.82, -0.012159, -0.815, -0.011605, -0.805, -0.010525, -0.8, -0.0099997, -0.79, -0.0089818, -0.785, -0.0084899, -0.775, -0.007543, -0.765, -0.0066486, -0.75, -0.0054144, -0.735, -0.0043203, -0.725, -0.0036737, -0.715, -0.003095, -0.705, -0.0025841, -0.69, -0.0019405, -0.675, -0.0014324, -0.66, -0.0010415, -0.645, -0.00074719, -0.625, -0.00047211, -0.6, -0.00026811, -0.575, -0.0001772, -0.555, -0.00013875, -0.54, -0.00011762, -0.525, -0.0001007, -0.51, -8.6632e-05, -0.495, -7.4556e-05, -0.48, -6.3917e-05, -0.465, -5.4374e-05, -0.45, -4.5727e-05, -0.435, -3.7875e-05, -0.42, -3.0781e-05, -0.295, -1.9149e-06, 3.3, 9.919e-08)

V3 PULLUP_REF 0 3.0
B3 DIE PULLUP_REF I={V(Ku)*table(V(DIE), -8.0, -0.088248, -6.17, -0.082683, -4.39, -0.077282, 0.1549999999999998, -0.063504, 0.2400000000000002, -0.063245, 0.2799999999999998, -0.063124, 0.31999999999999984, -0.063002, 0.3599999999999999, -0.06288, 0.3999999999999999, -0.062758, 0.43999999999999995, -0.062636, 0.48, -0.062515, 0.5150000000000001, -0.062408, 0.56, -0.062271, 0.6000000000000001, -0.062149, 0.6400000000000001, -0.062027, 0.7149999999999999, -0.061798, 0.7949999999999999, -0.061554, 0.875, -0.061309, 0.9500000000000002, -0.061209, 1.025, -0.060965, 1.105, -0.060537, 1.18, -0.059979, 1.26, -0.059217, 1.335, -0.058346, 1.415, -0.05725, 1.49, -0.056066, 1.57, -0.054636, 1.645, -0.053139, 1.725, -0.051374, 1.795, -0.049689, 1.86, -0.048006, 1.93, -0.046067, 1.995, -0.044148, 2.06, -0.042115, 2.13, -0.039798, 2.195, -0.037529, 2.265, -0.034959, 2.33, -0.032454, 2.4, -0.029629, 2.465, -0.026888, 2.535, -0.023809, 2.605, -0.020598, 2.67, -0.017499, 2.74, -0.014035, 2.805, -0.010701, 2.88, -0.0067118, 2.95, -0.0028493, 3.02, 0.001162, 3.1, 0.0059279, 3.18, 0.010881, 3.24, 0.014667, 3.295, 0.01817, 3.385, 0.023994, 3.475, 0.02994, 3.565, 0.036006, 3.66, 0.042534, 3.695, 0.044969, 3.75, 0.048826, 3.77, 0.050236, 3.8, 0.052357, 3.835, 0.054836, 3.89, 0.058711, 3.925, 0.061121, 3.955, 0.063109, 4.015, 0.066955, 4.07, 0.070702, 4.125, 0.07471, 4.21, 0.081049, 4.3100000000000005, 0.088622, 4.41, 0.096306, 4.515, 0.10449, 4.62, 0.11277, 4.73, 0.12157, 4.84, 0.13047, 4.95, 0.13947, 5.0649999999999995, 0.14899, 5.18, 0.15861, 5.3, 0.16875, 5.42, 0.17899, 5.54, 0.18932, 5.665, 0.20019, 5.785, 0.21071, 5.91, 0.22176, 6.04, 0.23334, 6.165, 0.24455, 6.295, 0.2563, 6.425, 0.26813, 6.5649999999999995, 0.28096, 6.705, 0.29387, 6.835, 0.30593, 6.98, 0.31945, 7.12, 0.33255, 7.275, 0.34713, 7.435, 0.36225, 7.6, 0.37793, 7.785, 0.39558, 7.96, 0.41236, 8.14, 0.42969, 8.315000000000001, 0.4466, 8.5, 0.46456)}
V4 PULLDOWN_REF 0 0
B4 DIE PULLDOWN_REF I={V(Kd)*table(V(DIE), -5.5, -0.11632, -5.265, -0.1161, -5.02, -0.1155, -4.78, -0.11457, -4.535, -0.11327, -4.285, -0.1116, -4.035, -0.10958, -3.53, -0.10447, -3.02, -0.097896, -2.765, -0.094051, -2.515, -0.089896, -2.27, -0.085419, -2.03, -0.080602, -1.795, -0.07541, -1.57, -0.069917, -1.265, -0.061427, -0.995, -0.052503, -0.755, -0.042788, -0.56, -0.032642, -0.495, -0.028841, -0.435, -0.02533, 0.07, 0.004009, 0.33, 0.018245, 0.595, 0.031617, 0.855, 0.043474, 1.0, 0.049478, 1.145, 0.054998, 1.285, 0.05983, 1.42, 0.063984, 1.555, 0.067594, 1.685, 0.070505, 1.815, 0.072805, 1.94, 0.074377, 2.085, 0.07532, 2.23, 0.075543, 2.37, 0.07575, 2.51, 0.075956, 3.93, 0.078014, 4.135, 0.078832, 4.41, 0.082359, 4.67, 0.087956, 4.845, 0.092795, 5.03, 0.098742, 5.24, 0.10642, 5.455, 0.1152, 5.68, 0.12526, 5.915, 0.13659, 6.16, 0.14913, 6.415, 0.1627, 6.78, 0.1817, 6.88, 0.18597, 6.955, 0.18807, 7.005, 0.188, 7.035, 0.18593, 7.16, 0.1568, 7.255, 0.13664, 7.35, 0.11953, 7.44, 0.10637, 7.535, 0.095843, 7.555, 0.092682, 7.58, 0.090639, 7.645, 0.087971, 7.745, 0.086281, 7.785, 0.085953, 7.81, 0.085809, 7.835, 0.085703, 8.03, 0.085635, 8.15, 0.085771, 8.22, 0.085855, 8.29, 0.08594, 8.375, 0.086045, 8.425, 0.086107, 8.435, 0.08612, 8.45, 0.086138, 8.475, 0.08617, 8.51, 0.086214, 8.545, 0.086258, 8.58, 0.086302, 8.64, 0.086379, 8.71, 0.086468, 8.84, 0.086635, 8.97, 0.086803, 9.1, 0.086972, 9.23, 0.087141, 9.245, 0.087161, 9.265, 0.087187, 9.29, 0.08722, 9.315, 0.087253, 9.35, 0.087299, 9.385, 0.087345, 9.43, 0.087404, 9.48, 0.087469, 9.585, 0.087608, 9.71, 0.087773, 9.86, 0.087972, 10.03, 0.088198, 10.225, 0.088457, 10.45, 0.088758, 10.705, 0.089099, 11.0, 0.089495)}

.model SW SW(Ron=1n Roff=1G Vt=.5 Vh=-.4)


* Setup the Stimulus setting options for the Pullup Waveform (Ku)
V10 OSC 0 {if(stimulus_==1, 1, 0)}
V11 OSC_INV 0 {if(stimulus_==2, 1, 0)}
V12 RISE 0 {if(stimulus_==3, 1, 0)}
V13 FALL 0 {if(stimulus_==4, 1, 0)}
V14 HIGH 0 {if(stimulus_==5, 1, 0)}
V15 LOW 0 {if(stimulus_==6, 1, 0)}
S1 Ku K_U_OSC OSC 0 SW
S2 Ku K_U_OSC_INV OSC_INV 0 SW
S3 Ku K_U_RISE RISE 0 SW
S4 Ku K_U_FALL FALL 0 SW
S5 Ku K_U_HIGH HIGH 0 SW
S6 Ku K_U_LOW LOW 0 SW

* Setup the Stimulus setting options for the Pulldown Waveform (Kd)
S7 Kd K_D_OSC OSC 0 SW
S8 Kd K_D_OSC_INV OSC_INV 0 SW
S9 Kd K_D_RISE RISE 0 SW
S10 Kd K_D_FALL FALL 0 SW
S11 Kd K_D_HIGH HIGH 0 SW
S12 Kd K_D_LOW LOW 0 SW

* Define Oscillation Sources
.param calc_gap_pos = {(duty/freq) - 4.28e-09 - 4.84e-09}
.param calc_gap_neg = {((1-duty)/freq) - 4.08e-09 - 5.275e-09}

.param GAP_POS = {if(calc_gap_pos <= 0, 0.1e-12, calc_gap_pos)}
.param GAP_NEG = {if(calc_gap_neg <= 0, 0.1e-12, calc_gap_neg)}

.param stimulus_ = {if(stimulus < 1, 1, if(stimulus > 6, 6, stimulus)}

V16 K_U_OSC 0 PWL REPEAT FOREVER (0 -0.0007718172903148374 +0.01e-12 -0.0007718172903148374 +2.16e-09 -0.0007936503499043555 +8.99999999999999e-11 -0.000789206449342542 +9.000000000000031e-11 -0.000784828727883668 +2.499999999999981e-11 -0.0007720486049294563 +1.5499999999999998e-10 -0.0007379120095068899 +4.5000000000000155e-11 -0.0007267474383668714 +4.999999999999879e-12 -0.0007367411460527657 +2.499999999999981e-11 -0.0007335526211157459 +1.500000000000005e-11 -0.0007332533877082338 +1.500000000000005e-11 -0.0007320975070263186 +4.999999999999879e-12 -0.0007348495382125778 +1.0000000000000172e-11 -0.000734160307354985 +1.0000000000000172e-11 -0.0007372501210672544 +9.999999999999759e-12 -0.000736972757627601 +5.000000000000293e-12 -0.0007392538198819871 +1.4999999999999638e-11 -0.0007420701391103963 +2.0000000000000345e-11 -0.0007458602291050769 +1.4999999999999638e-11 -0.0007492433373306834 +5.000000000000293e-12 -0.0007493305823576876 +9.999999999999759e-12 -0.0007542545431124434 +5.000000000000293e-12 -0.0007549095237777016 +1.999999999999993e-11 -0.0007620502775710137 +1.500000000000005e-11 -0.0007651228179979029 +4.999999999999879e-12 -0.000769262771333069 +1.500000000000005e-11 -0.0007749468305915468 +1.500000000000005e-11 -0.000782095856638238 +1.999999999999993e-11 -0.0007856766000635989 +9.999999999999759e-12 -0.0007883313162736731 +2.5000000000000224e-11 -0.000794805578340512 +4.999999999999879e-12 -0.0007930893821863562 +2.5000000000000224e-11 -0.0007984193425390656 +2.499999999999981e-11 -0.0008045793544186494 +3.00000000000001e-11 -0.0008139064668690364 +3.00000000000001e-11 -0.0008227921690506697 +3.499999999999998e-11 -0.0008330380055826769 +1.500000000000005e-11 -0.000837611062948183 +4.999999999999879e-12 -0.000835944641155105 +1.500000000000005e-11 -0.0008307290155954079 +2.999999999999969e-11 -0.000831944110447148 +1.500000000000005e-11 -0.0008310838336008725 +1.999999999999993e-11 -0.0008291804993648562 +3.00000000000001e-11 -0.0008295445913735118 +5.000000000000293e-12 -0.0008297238016916842 +1.4999999999999638e-11 -0.0008281923634304229 +2.0000000000000345e-11 -0.0008250937430853255 +4.999999999999879e-12 -0.0008249768991102155 +3.999999999999986e-11 -0.000772410918613086 +4.999999999999879e-12 -0.0007689411572295091 +4.5000000000000155e-11 -0.000679149893521655 +3.999999999999986e-11 -0.000627605238741898 +5.000000000000293e-12 -0.0005718008261150172 +5.4999999999999913e-11 -0.00041912677583738286 +3.999999999999986e-11 -0.00032261953145018937 +1.500000000000005e-11 -0.00018766140725075964 +6.500000000000009e-11 3.905921048190602e-05 +1.500000000000005e-11 0.0002041195744168734 +1.999999999999993e-11 0.00029861836839739154 +3.00000000000001e-11 0.0005631895145691973 +4.999999999999879e-12 0.0005935605617466858 +3.00000000000001e-11 0.0007755028816604006 +1.500000000000005e-11 0.000947262209012782 +1.500000000000005e-11 0.0010515896623708076 +9.999999999999759e-12 0.0010610581591473309 +1.999999999999993e-11 0.0011875432753921534 +1.0000000000000172e-11 0.0012333204294746962 +1.999999999999993e-11 0.0013555708954044673 +1.0000000000000172e-11 0.001415286460370726 +1.999999999999993e-11 0.0015380053953266781 +4.999999999999879e-12 0.0015384957740019706 +2.499999999999981e-11 0.0016842682501077458 +4.999999999999879e-12 0.0016364300104068838 +2.5000000000000224e-11 0.0017239749300508127 +2.5000000000000224e-11 0.0017974212724517847 +4.999999999999879e-12 0.0018188845921973543 +2.5000000000000224e-11 0.0018569553729549642 +4.999999999999879e-12 0.0018749773138054932 +2.5000000000000224e-11 0.0019003660344489644 +2.4999999999999397e-11 0.0017977413573914945 +4.999999999999879e-12 0.0018049763315387563 +6.00000000000002e-11 0.0011530933996510243 +3.499999999999998e-11 0.0004461017916660609 +3.00000000000001e-11 9.572730479014663e-05 +2.0000000000000345e-11 -0.0011688982994803431 +2.4999999999999397e-11 -0.0017415090574978886 +5.000000000000045e-11 -0.003769227067940566 +3.499999999999998e-11 -0.004913695067526571 +9.999999999999759e-12 -0.005773632797924219 +3.00000000000001e-11 -0.0069338511677364545 +1.5000000000000465e-11 -0.008039833121980262 +2.4999999999999397e-11 -0.009142808713265609 +1.5000000000000465e-11 -0.010010644868543424 +2.4999999999999397e-11 -0.011160432092446469 +2.0000000000000345e-11 -0.012426009709260602 +3.00000000000001e-11 -0.013901778031148098 +1.4999999999999638e-11 -0.014917626698730433 +3.999999999999986e-11 -0.01695915202423529 +5.0000000000007065e-12 -0.01753898541003742 +5.49999999999995e-11 -0.02050904923968477 +4.999999999999879e-12 -0.021621054487649057 +5.000000000000045e-11 -0.024688393360461275 +9.999999999999759e-12 -0.026163021621757182 +6.999999999999997e-11 -0.031848073029710273 +7.499999999999984e-11 -0.0375170944963483 +5.0000000000007065e-12 -0.03714184082137344 +7.999999999999972e-11 -0.043666474539674115 +2.5000000000000224e-11 -0.04376016807308277 +9.499999999999936e-11 -0.052389830930107316 +2.0000000000000345e-11 -0.049990278499110086 +7.499999999999984e-11 -0.03944222345990097 +4.499999999999974e-11 -0.028941634438081686 +5.500000000000033e-11 -0.01362652513239059 +3.00000000000001e-11 -0.005829989909759794 +4.499999999999974e-11 0.009755347637336287 +3.00000000000001e-11 0.018235459885581964 +3.999999999999986e-11 0.036535423722859124 +3.00000000000001e-11 0.0431579248532416 +3.999999999999986e-11 0.06832814305633299 +2.0000000000000345e-11 0.07240302246262255 +4.499999999999974e-11 0.10213045540665563 +2.0000000000000345e-11 0.1033896430625052 +3.999999999999986e-11 0.13771850064117408 +2.5000000000000224e-11 0.13662578226473593 +3.499999999999998e-11 0.1771264149114619 +1.9999999999999517e-11 0.1725416550422046 +3.999999999999986e-11 0.2182723826168358 +1.5000000000000465e-11 0.2094126378532859 +3.999999999999986e-11 0.2568826598964228 +1.5000000000000465e-11 0.2444462370021373 +3.499999999999998e-11 0.2970304575341369 +1.9999999999999517e-11 0.28507328869562815 +3.999999999999986e-11 0.341066221815654 +1.0000000000000586e-11 0.3214409978479234 +4.499999999999974e-11 0.3731823679332843 +4.999999999999879e-12 0.3507126166034097 +6.00000000000002e-11 0.35963984706827196 +5.49999999999995e-11 0.37786467456258 +1.0000000000000586e-11 0.41791069380750745 +4.999999999999962e-11 0.421468738823106 +3.999999999999986e-11 0.4930679213589929 +3.00000000000001e-11 0.5573977247563445 +5.000000000000045e-11 0.6544363597521953 +1.9999999999999517e-11 0.5082758056944425 +3.999999999999986e-11 0.6001119341016314 +2.5000000000000224e-11 0.49134880730074276 +3.00000000000001e-11 0.5810618546132906 +3.00000000000001e-11 0.4941655016807451 +2.5000000000000224e-11 0.5943578116374058 +2.9999999999999276e-11 0.5082312441491098 +3.499999999999998e-11 0.606862779951279 +3.00000000000001e-11 0.5206984024330334 +3.499999999999998e-11 0.6230333113280565 +2.5000000000000224e-11 0.5455835116968867 +5.000000000000045e-11 0.6598674060590477 +1.9999999999999517e-11 0.5716897477162038 +6.500000000000009e-11 0.6944326640306525 +1.4999999999999638e-11 0.6070087990914289 +8.000000000000055e-11 0.7302364379410687 +4.999999999999879e-12 0.6428654471941017 +9.000000000000031e-11 0.6948762595572163 +1.0499999999999995e-10 0.718031410532805 +1.0999999999999983e-10 0.7135151616361132 +3.00000000000001e-11 0.7682144744840163 +1.0000000000000007e-10 0.7844969673218041 +1.6499999999999933e-10 0.7940388558866195 +2.5000000000000224e-11 0.8182586366971184 +3.000000000000002e-10 0.8593798423092668 +1.2499999999999946e-10 0.876269111395956 +3.300000000000003e-10 0.9131808598189557 +1.2000000000000008e-09 0.9238031836227547 +3.9499999999999957e-10 0.9386551654415999 +{GAP_POS} 0.9386551654415999 +0.0 0.9997740943498705 +2.185e-09 1.0005519501347737 +1.0000000000000172e-11 0.9998835087489213 +1.2499999999999988e-10 0.9998784827045419 +1.0000000000000172e-11 0.9988562224513021 +5.4999999999999913e-11 0.9999777589077291 +6.500000000000009e-11 1.000697869235361 +1.999999999999993e-11 0.9961130112081809 +4.999999999999879e-12 0.9997050239016859 +4.0000000000000275e-11 0.9969939556384453 +2.999999999999969e-11 0.99992157048979 +5.000000000000293e-12 1.0026818529559882 +5.4999999999999913e-11 0.9996703509568667 +1.500000000000005e-11 0.9958675773150296 +9.999999999999759e-12 0.9954746860932158 +4.0000000000000275e-11 0.9986850664972171 +1.500000000000005e-11 1.0024768131096324 +9.999999999999759e-12 0.999085397432829 +1.500000000000005e-11 0.9953128520855332 +1.0000000000000172e-11 0.9987196703249596 +1.500000000000005e-11 1.005039467383795 +4.999999999999879e-12 1.000630662632268 +9.999999999999759e-12 0.9944952179955877 +1.0000000000000172e-11 0.9987542765479186 +1.0000000000000172e-11 1.0034942888821268 +4.999999999999879e-12 0.9989998493463742 +1.500000000000005e-11 0.9990258187286141 +4.999999999999879e-12 1.0037850869751819 +1.500000000000005e-11 0.9957340903942186 +1.500000000000005e-11 1.0005221709085859 +3.499999999999998e-11 0.9994584375828715 +1.999999999999993e-11 0.9958985132850706 +4.999999999999879e-12 0.9957089169662867 +2.0000000000000345e-11 0.9993839317546541 +4.999999999999879e-12 1.0019518278233202 +2.499999999999981e-11 1.006002483239078 +5.000000000000293e-12 0.9847933935555756 +4.999999999999879e-12 0.9992277729516911 +1.999999999999993e-11 1.0017847651487388 +4.999999999999879e-12 1.00572993896615 +1.0000000000000172e-11 1.0064148296824527 +4.999999999999879e-12 1.0004149265244806 +1.0000000000000172e-11 0.9979058849598987 +4.999999999999879e-12 0.9977814496701228 +1.500000000000005e-11 1.0037481115786857 +4.999999999999879e-12 1.007750412604738 +5.000000000000293e-12 1.0018187933424918 +1.4999999999999638e-11 1.0020584190696031 +5.000000000000293e-12 1.0008716883145587 +9.999999999999759e-12 1.0008948595313691 +5.000000000000293e-12 1.000906445541778 +1.4999999999999638e-11 1.0009412051801845 +1.0000000000000172e-11 1.0035028198454816 +4.999999999999879e-12 1.0036466156607113 +1.500000000000005e-11 1.0104155083772497 +4.999999999999879e-12 1.0083640032393306 +1.0000000000000172e-11 1.0011450852567976 +1.999999999999993e-11 1.005155580384837 +3.499999999999998e-11 1.003534605348772 +3.499999999999998e-11 1.0066720429781193 +3.499999999999998e-11 1.0078648892695874 +5.000000000000293e-12 1.0069496126677355 +2.999999999999969e-11 1.007632602560096 +2.5000000000000224e-11 1.0132761231443865 +9.999999999999759e-12 1.0113088752293575 +3.499999999999998e-11 1.0070123509704363 +1.500000000000005e-11 1.011537769208949 +1.500000000000005e-11 1.0097440498198844 +1.500000000000005e-11 1.0130547429576438 +1.999999999999993e-11 1.0097725648275455 +1.0000000000000172e-11 1.0145369495667915 +1.999999999999993e-11 1.0090838132784374 +1.999999999999993e-11 1.013432722133471 +1.0000000000000172e-11 1.0083834997224614 +1.500000000000005e-11 1.0117717375719173 +2.499999999999981e-11 1.0158644336440954 +4.999999999999879e-12 1.007594405168038 +2.0000000000000345e-11 1.0105899810226007 +2.499999999999981e-11 1.0052160697145516 +2.499999999999981e-11 1.0113951866011224 +5.000000000000293e-12 1.0028421467687376 +1.500000000000005e-11 1.0017478949430292 +1.999999999999993e-11 1.0041706722962878 +1.999999999999993e-11 1.0003097534760081 +3.00000000000001e-11 0.9895435678631278 +9.999999999999759e-12 0.9942909607472136 +3.00000000000001e-11 0.9862290340805838 +1.0000000000000172e-11 0.9921846501604453 +1.4999999999999638e-11 0.973438968349333 +2.0000000000000345e-11 0.9807077174021187 +3.999999999999986e-11 0.9645603220930936 +6.00000000000002e-11 0.9428414424927052 +3.00000000000001e-11 0.9340828399348365 +3.499999999999998e-11 0.918718445417518 +3.00000000000001e-11 0.8997624838739315 +4.999999999999879e-12 0.9002045017777945 +3.00000000000001e-11 0.8822300352049187 +4.999999999999879e-12 0.882540239606657 +1.4999999999999638e-11 0.87811533368642 +2.0000000000000345e-11 0.8730559636019598 +4.999999999999879e-12 0.8591724020644819 +3.999999999999986e-11 0.8440806928012364 +9.999999999999759e-12 0.8310965083402653 +3.00000000000001e-11 0.8276879691291033 +9.999999999999759e-12 0.798011482584864 +2.5000000000000224e-11 0.804635675307315 +2.5000000000000224e-11 0.7716898562110122 +9.999999999999759e-12 0.778286554231408 +2.0000000000000345e-11 0.7374356613308604 +9.999999999999759e-12 0.7906145347687836 +3.999999999999986e-11 0.6916552286454483 +4.500000000000057e-11 0.7650701882471881 +3.999999999999986e-11 0.6381870954190372 +5.49999999999995e-11 0.7203547981002562 +2.5000000000000224e-11 0.5960671390138917 +5.500000000000033e-11 0.6910070333761517 +1.4999999999999638e-11 0.5880407755560972 +5.000000000000045e-11 0.45978233706521693 +1.9999999999999517e-11 0.5585188627000073 +3.499999999999998e-11 0.45062790447246837 +2.0000000000000345e-11 0.5243506590780966 +3.00000000000001e-11 0.40543560328312866 +1.9999999999999517e-11 0.48165785258263083 +3.00000000000001e-11 0.37639195715876167 +2.5000000000000224e-11 0.4602917786182003 +1.9999999999999517e-11 0.316531781878696 +3.00000000000001e-11 0.3956727758572199 +1.0000000000000586e-11 0.2673495472873754 +3.999999999999986e-11 0.34998037431687645 +1.4999999999999638e-11 0.1278689777871433 +2.0000000000000345e-11 0.24017619808732552 +4.999999999999879e-12 0.09907957303921498 +3.00000000000001e-11 -0.02862211883254779 +9.999999999999759e-12 0.07507929132108501 +1.5000000000000465e-11 -0.023305172687827218 +2.4999999999999397e-11 0.1578789527985166 +3.00000000000001e-11 0.27420496063925937 +4.999999999999879e-12 0.19279567500210038 +3.00000000000001e-11 0.31393474222088086 +9.999999999999759e-12 0.21355779270278932 +9.000000000000031e-11 0.1963139226871527 +4.999999999999879e-12 0.11097973325984191 +6.500000000000009e-11 -0.020234221068216016 +3.00000000000001e-11 -0.0020681143858077237 +3.499999999999998e-11 0.05587976141557452 +4.499999999999974e-11 0.05492122410098859 +5.000000000000045e-11 0.10548271884185471 +4.999999999999879e-12 0.04387456682475894 +3.499999999999998e-11 0.0923282464046513 +1.4999999999999638e-11 0.04917951205883311 +2.5000000000000224e-11 0.09540597609031146 +2.0000000000000345e-11 0.02717649028099779 +1.9999999999999517e-11 0.07617260599881785 +2.0000000000000345e-11 0.027076889201085703 +1.9999999999999517e-11 0.080326640251114 +2.0000000000000345e-11 0.03808681684547118 +3.00000000000001e-11 0.07196036897845262 +1.4999999999999638e-11 0.03836660415296676 +3.499999999999998e-11 0.07652682823889347 +5.0000000000007065e-12 0.04872530564652417 +5.49999999999995e-11 0.04635308754563684 +5.500000000000033e-11 0.044928819800236046 +7.499999999999984e-11 0.019907339848929027 +9.999999999999759e-12 0.0380586146278041 +6.00000000000002e-11 0.025032076650229048 +3.00000000000001e-11 0.033968831933311544 +3.499999999999998e-11 0.026448603584633922 +6.999999999999997e-11 0.026894552137310845 +3.00000000000001e-11 0.02267910735882396 +8.999999999999948e-11 0.022107165116777464 +1.0000000000000586e-11 0.02038984824061298 +1.5999999999999945e-10 0.013832430023857959 +1.1000000000000065e-10 0.0120750588378416 +2.1999999999999965e-10 0.008386550040055491 +2.099999999999999e-10 0.006026876337099669 +2.7999999999999986e-10 0.0051018043896619925 +1.3899999999999995e-09 -4.7972646801877426e-05 +4.250000000000005e-10 -5.871513760467128e-05 +{GAP_NEG} -5.871513760467128e-05) ENDREPEAT
V17 K_U_HIGH 0 1
V18 K_U_LOW 0 0