*********************************************************************
*
* IBIS filename: sn74lvc2t45.ibs
* Component: LVC2T45_DCT
* Model: LVC2T45_IO_A_33
* Model Type: I/O
* Corner: Typical
* Voltage Range (V): [3.3 3.0 3.6] (Typ, Min, Max)
* Temperature Range (degC): [40.0 -40.0 100.0] (Typ, Min, Max)
* SPICE subcircuit model created with pybis2spice version 1.0
* For more info, visit https://github.com/kamratia1/pybis2spice/
*
* Note: This model may only work in LTSpice.
* Stimulus Options: 
*	1 - Oscillate at given freq and duty
*	2 - Inverted Oscillate at given freq and duty
*	3 - Rising Edge with delay
*	4 - Falling Edge with delay
*	5 - Stuck High
*	6 - Stuck Low
*	7 - HighZ (if 3-State output)

*********************************************************************

.SUBCKT LVC2T45_IO_A_33-Output-Typical OUT params: stimulus=1 freq=10Meg duty=0.5 delay=0 

.param C_pkg = 2.31e-13
.param L_pkg = 1.796e-09
.param R_pkg = 0.029
.param C_comp = 6.32e-12

R1 OUT MID {R_pkg}
L1 DIE MID {L_pkg}
C1 OUT 0 {C_pkg}
C2 DIE 0 {C_comp}

V2 GND_CLAMP_REF 0 0
B2 DIE GND_CLAMP_REF I = table(V(DIE), -5.5, -0.89775, -5.245, -0.84697, -5.005, -0.79925, -4.775, -0.75359, -4.545, -0.70802, -4.335, -0.66648, -4.115, -0.62304, -3.905, -0.58168, -3.71, -0.54335, -3.52, -0.50611, -3.335, -0.46994, -3.24, -0.4514, -3.155, -0.43485, -3.065, -0.41735, -2.985, -0.40182, -2.895, -0.38437, -2.815, -0.3689, -2.735, -0.35345, -2.655, -0.33804, -2.575, -0.32266, -2.505, -0.30923, -2.43, -0.29487, -2.36, -0.2815, -2.285, -0.26722, -2.215, -0.25392, -2.145, -0.24066, -2.075, -0.22745, -2.01, -0.21521, -1.94, -0.20208, -1.875, -0.18994, -1.815, -0.17877, -1.755, -0.16765, -1.695, -0.15658, -1.635, -0.14556, -1.58, -0.13552, -1.525, -0.12553, -1.475, -0.11649, -1.425, -0.10752, -1.375, -0.098605, -1.33, -0.090642, -1.285, -0.082742, -1.24, -0.074914, -1.2, -0.068025, -1.165, -0.062058, -1.13, -0.056156, -1.095, -0.050331, -1.065, -0.045408, -1.04, -0.041364, -1.015, -0.037383, -1.0, -0.035028, -0.99, -0.033474, -0.98, -0.031934, -0.97, -0.030409, -0.96, -0.028901, -0.95, -0.02741, -0.94, -0.025938, -0.93, -0.024487, -0.92, -0.023059, -0.915, -0.022355, -0.905, -0.020966, -0.9, -0.020283, -0.89, -0.01894, -0.88, -0.017632, -0.87, -0.016362, -0.86, -0.015136, -0.855, -0.01454, -0.845, -0.013388, -0.83, -0.011767, -0.82, -0.010766, -0.815, -0.010292, -0.805, -0.0093985, -0.8, -0.0089804, -0.79, -0.0082024, -0.785, -0.0078428, -0.775, -0.0071811, -0.765, -0.0065929, -0.75, -0.0058339, -0.735, -0.0051975, -0.725, -0.0048266, -0.715, -0.0044888, -0.705, -0.0041774, -0.69, -0.0037482, -0.675, -0.0033532, -0.66, -0.0029837, -0.645, -0.0026349, -0.625, -0.0021971, -0.6, -0.0016908, -0.575, -0.0012306, -0.555, -0.00089907, -0.54, -0.00067474, -0.525, -0.00047454, -0.51, -0.0003026, -0.495, -0.00016436, -0.48, -6.6684e-05, -0.465, -1.7592e-05, -0.45, -1.012e-05, -0.435, -6.4641e-06, -0.42, -4.0976e-06, -0.295, -8.8703e-08, 3.3, 2.6731e-11)

V3 PULLUP_REF 0 3.3
B3 DIE PULLUP_REF I={V(Ku)*table(V(DIE), -7.7, -0.14689, -5.87, -0.13658, -4.09, -0.12659, 0.4549999999999996, -0.10115, 0.54, -0.10068, 0.5799999999999996, -0.10045, 0.6199999999999997, -0.10023, 0.6599999999999997, -0.1, 0.6999999999999997, -0.099781, 0.7399999999999998, -0.099557, 0.7799999999999998, -0.099332, 0.815, -0.099149, 0.8599999999999999, -0.099092, 0.8999999999999999, -0.098988, 0.94, -0.098833, 1.0149999999999997, -0.098407, 1.0949999999999998, -0.097755, 1.1749999999999998, -0.0969, 1.25, -0.095915, 1.3249999999999997, -0.094751, 1.4049999999999998, -0.093313, 1.4799999999999998, -0.091781, 1.5599999999999998, -0.089951, 1.6349999999999998, -0.08805, 1.7149999999999999, -0.085827, 1.7899999999999998, -0.083558, 1.8699999999999999, -0.080942, 1.9449999999999998, -0.078305, 2.025, -0.075296, 2.0949999999999998, -0.072497, 2.16, -0.069759, 2.2299999999999995, -0.066661, 2.295, -0.063645, 2.36, -0.060496, 2.4299999999999997, -0.056954, 2.4949999999999997, -0.053527, 2.565, -0.049687, 2.63, -0.045982, 2.6999999999999997, -0.041843, 2.7649999999999997, -0.037861, 2.835, -0.033424, 2.905, -0.028832, 2.9699999999999998, -0.024429, 3.04, -0.019538, 3.105, -0.014859, 3.1799999999999997, -0.0092931, 3.25, -0.0039351, 3.32, 0.0015999, 3.4, 0.008114, 3.48, 0.014844, 3.54, 0.020013, 3.5949999999999998, 0.024781, 3.6849999999999996, 0.03264, 3.775, 0.040617, 3.8649999999999998, 0.048703, 3.96, 0.057235, 3.9949999999999997, 0.060238, 4.05, 0.064726, 4.07, 0.066404, 4.1, 0.069027, 4.135, 0.072192, 4.1899999999999995, 0.077275, 4.225, 0.08055, 4.255, 0.083374, 4.3149999999999995, 0.089065, 4.37, 0.094327, 4.425, 0.099629, 4.51, 0.1079, 4.609999999999999, 0.11773, 4.71, 0.12768, 4.8149999999999995, 0.13824, 4.92, 0.14892, 5.029999999999999, 0.16021, 5.14, 0.17162, 5.25, 0.18314, 5.365, 0.19528, 5.48, 0.20754, 5.6, 0.22043, 5.72, 0.23342, 5.84, 0.24652, 5.965, 0.26026, 6.085, 0.27354, 6.21, 0.28747, 6.34, 0.30205, 6.465, 0.31616, 6.595, 0.33091, 6.725, 0.34575, 6.865, 0.36182, 7.005, 0.37798, 7.135, 0.39305, 7.279999999999999, 0.40995, 7.42, 0.42634, 7.575, 0.44456, 7.734999999999999, 0.46345, 7.8999999999999995, 0.48296, 8.085, 0.50493, 8.26, 0.52579, 8.44, 0.54733, 8.615, 0.56834, 8.8, 0.59061)}
V4 PULLDOWN_REF 0 0
B4 DIE PULLDOWN_REF I={V(Kd)*table(V(DIE), -5.5, -0.17659, -5.265, -0.17571, -5.02, -0.17424, -4.78, -0.17228, -4.535, -0.16975, -4.285, -0.16664, -4.035, -0.16302, -3.53, -0.15416, -3.02, -0.14312, -2.765, -0.13679, -2.515, -0.13004, -2.27, -0.12287, -2.03, -0.11525, -1.795, -0.10717, -1.57, -0.09877, -1.265, -0.08612, -0.995, -0.073327, -0.755, -0.060078, -0.56, -0.047371, -0.495, -0.042524, -0.435, -0.037471, 0.07, 0.0059579, 0.33, 0.027218, 0.595, 0.047397, 0.855, 0.065576, 1.0, 0.074949, 1.145, 0.083728, 1.285, 0.091602, 1.42, 0.098594, 1.555, 0.10495, 1.685, 0.11044, 1.815, 0.11524, 1.94, 0.11917, 2.085, 0.12281, 2.23, 0.12536, 2.37, 0.12669, 2.51, 0.12705, 3.93, 0.13024, 4.135, 0.13069, 4.41, 0.132, 4.67, 0.13632, 4.845, 0.14083, 5.03, 0.14683, 5.24, 0.15502, 5.455, 0.16476, 5.68, 0.17625, 5.915, 0.18951, 6.16, 0.20456, 6.415, 0.22138, 6.78, 0.24718, 6.88, 0.25454, 6.955, 0.26012, 7.005, 0.26387, 7.035, 0.26613, 7.16, 0.27561, 7.255, 0.28284, 7.35, 0.29005, 7.44, 0.29682, 7.535, 0.30376, 7.555, 0.30518, 7.58, 0.30693, 7.645, 0.31121, 7.745, 0.31622, 7.785, 0.31605, 7.81, 0.31351, 7.835, 0.30962, 8.03, 0.26448, 8.15, 0.23899, 8.22, 0.22543, 8.29, 0.21287, 8.375, 0.19897, 8.425, 0.19151, 8.435, 0.1899, 8.45, 0.18437, 8.475, 0.17866, 8.51, 0.17338, 8.545, 0.16957, 8.58, 0.16661, 8.64, 0.16271, 8.71, 0.15936, 8.84, 0.1551, 8.97, 0.15232, 9.1, 0.15043, 9.23, 0.14912, 9.245, 0.149, 9.265, 0.14885, 9.29, 0.14867, 9.315, 0.1485, 9.35, 0.14828, 9.385, 0.14809, 9.43, 0.14787, 9.48, 0.14766, 9.585, 0.14732, 9.71, 0.14708, 9.86, 0.14696, 10.03, 0.14699, 10.225, 0.1472, 10.45, 0.14761, 10.705, 0.14812, 11.0, 0.14874)}

.model SW SW(Ron=1n Roff=1G Vt=.5 Vh=-.4)


* Setup the Stimulus setting options for the Pullup Waveform (Ku)
V10 OSC 0 {if(stimulus_==1, 1, 0)}
V11 OSC_INV 0 {if(stimulus_==2, 1, 0)}
V12 RISE 0 {if(stimulus_==3, 1, 0)}
V13 FALL 0 {if(stimulus_==4, 1, 0)}
V14 HIGH 0 {if(stimulus_==5, 1, 0)}
V15 LOW 0 {if(stimulus_==6, 1, 0)}
S1 Ku K_U_OSC OSC 0 SW
S2 Ku K_U_OSC_INV OSC_INV 0 SW
S3 Ku K_U_RISE RISE 0 SW
S4 Ku K_U_FALL FALL 0 SW
S5 Ku K_U_HIGH HIGH 0 SW
S6 Ku K_U_LOW LOW 0 SW

* Setup the Stimulus setting options for the Pulldown Waveform (Kd)
S7 Kd K_D_OSC OSC 0 SW
S8 Kd K_D_OSC_INV OSC_INV 0 SW
S9 Kd K_D_RISE RISE 0 SW
S10 Kd K_D_FALL FALL 0 SW
S11 Kd K_D_HIGH HIGH 0 SW
S12 Kd K_D_LOW LOW 0 SW

* Define Oscillation Sources
.param calc_gap_pos = {(duty/freq) - 3.9649999999999994e-09 - 3.54e-09}
.param calc_gap_neg = {((1-duty)/freq) - 5.379999999999999e-09 - 3.665e-09}

.param GAP_POS = {if(calc_gap_pos <= 0, 0.1e-12, calc_gap_pos)}
.param GAP_NEG = {if(calc_gap_neg <= 0, 0.1e-12, calc_gap_neg)}

.param stimulus_ = {if(stimulus < 1, 1, if(stimulus > 6, 6, stimulus)}

V16 K_U_OSC 0 PWL REPEAT FOREVER (0 -0.0005822903453166216 +0.01e-12 -0.0005822903453166216 +2.16e-09 -0.0005795156942755152 +8.99999999999999e-11 -0.0006111836092163523 +9.000000000000031e-11 -0.000642899880279967 +2.499999999999981e-11 -0.0005281708597377689 +1.5499999999999998e-10 -7.277937660451346e-05 +4.5000000000000155e-11 0.00014113183909649277 +4.999999999999879e-12 0.0002789764422053631 +2.499999999999981e-11 0.00043737201619350097 +1.500000000000005e-11 0.0006059802199026439 +1.500000000000005e-11 0.0007162415570472954 +4.999999999999879e-12 0.0008143389768791694 +1.0000000000000172e-11 0.0008962173104679361 +1.0000000000000172e-11 0.0010357881993366457 +9.999999999999759e-12 0.00112553932276775 +5.000000000000293e-12 0.0012151868010131478 +1.4999999999999638e-11 0.0014112965302334694 +2.0000000000000345e-11 0.0016702437471014556 +1.4999999999999638e-11 0.0017852377135835853 +5.000000000000293e-12 0.0018393954353703994 +9.999999999999759e-12 0.0017814699777545632 +5.000000000000293e-12 0.0018242020010589294 +1.999999999999993e-11 0.0019405374476066527 +1.500000000000005e-11 0.002054714077331111 +4.999999999999879e-12 0.002054871651107603 +1.500000000000005e-11 0.0021290771247075265 +1.500000000000005e-11 0.001477726265495153 +1.999999999999993e-11 0.0005278599206831495 +9.999999999999759e-12 0.0003863640189206462 +2.5000000000000224e-11 2.9006092659021353e-06 +4.999999999999879e-12 -0.0007836481916559969 +2.5000000000000224e-11 -0.001993325436906374 +2.499999999999981e-11 -0.0036525454289718508 +3.00000000000001e-11 -0.005749253857647122 +3.00000000000001e-11 -0.008211325869346234 +3.499999999999998e-11 -0.010658084360956999 +1.500000000000005e-11 -0.011684849518247688 +4.999999999999879e-12 -0.012274066285730616 +1.500000000000005e-11 -0.013690245199705445 +2.999999999999969e-11 -0.01628064549758469 +1.500000000000005e-11 -0.017732901722298185 +1.999999999999993e-11 -0.019691091975558954 +3.00000000000001e-11 -0.022525985626907604 +5.000000000000293e-12 -0.023023697075423274 +1.4999999999999638e-11 -0.024573567208406998 +2.0000000000000345e-11 -0.026923944679261957 +4.999999999999879e-12 -0.027538561002151254 +3.999999999999986e-11 -0.03249351682744864 +4.999999999999879e-12 -0.03330010601856328 +4.5000000000000155e-11 -0.03900983636194172 +3.999999999999986e-11 -0.042213046877979075 +5.000000000000293e-12 -0.043319726349629196 +5.4999999999999913e-11 -0.04771715975759237 +3.999999999999986e-11 -0.03778043975539344 +1.500000000000005e-11 -0.03468618376548987 +6.500000000000009e-11 -0.016178106958619452 +1.500000000000005e-11 -0.004431363038551364 +1.999999999999993e-11 0.013132635565204867 +3.00000000000001e-11 0.026141939569538315 +4.999999999999879e-12 0.033749864016664854 +3.00000000000001e-11 0.03955954401377425 +1.500000000000005e-11 0.07293521596883716 +1.500000000000005e-11 0.07680448827678522 +9.999999999999759e-12 0.09912041000789819 +1.999999999999993e-11 0.1000618287279051 +1.0000000000000172e-11 0.12887692078302604 +1.999999999999993e-11 0.1258804655504284 +1.0000000000000172e-11 0.15723238627316133 +1.999999999999993e-11 0.14807633002949305 +4.999999999999879e-12 0.18353331852252758 +2.499999999999981e-11 0.17080684244027317 +4.999999999999879e-12 0.21145321528761027 +2.5000000000000224e-11 0.23436530207743247 +2.5000000000000224e-11 0.2865639993167125 +4.999999999999879e-12 0.26207988283205363 +2.5000000000000224e-11 0.3267596162906401 +4.999999999999879e-12 0.2982711624783916 +2.5000000000000224e-11 0.3302786313630804 +2.4999999999999397e-11 0.42556679016423127 +4.999999999999879e-12 0.3713765633851912 +6.00000000000002e-11 0.3746690833085616 +3.499999999999998e-11 0.4151711587715219 +3.00000000000001e-11 0.49902917454692164 +2.0000000000000345e-11 0.5515630426101303 +2.4999999999999397e-11 0.599410014824373 +5.000000000000045e-11 0.552557877615373 +3.499999999999998e-11 0.7260797122361635 +9.999999999999759e-12 0.5423142926066266 +3.00000000000001e-11 0.7246983949191312 +1.5000000000000465e-11 0.54349828226387 +2.4999999999999397e-11 0.7073012636744681 +1.5000000000000465e-11 0.5206952677485039 +2.4999999999999397e-11 0.7147689588475873 +2.0000000000000345e-11 0.5374417863157835 +3.00000000000001e-11 0.7593984474737661 +1.4999999999999638e-11 0.5910689822601093 +3.999999999999986e-11 0.823134998569061 +5.0000000000007065e-12 0.6270094238897144 +5.49999999999995e-11 0.8578906520801748 +4.999999999999879e-12 0.6522733422649218 +5.000000000000045e-11 0.8514475121377121 +9.999999999999759e-12 0.6866555919883085 +6.999999999999997e-11 0.7231657268014006 +7.499999999999984e-11 0.6746423709816887 +5.0000000000007065e-12 0.7605502709101443 +7.999999999999972e-11 0.7380507281736706 +2.5000000000000224e-11 0.796336988042777 +9.499999999999936e-11 0.7918134710590403 +2.0000000000000345e-11 0.8220912088974881 +7.499999999999984e-11 0.856208294855479 +4.499999999999974e-11 0.8590132406338696 +5.500000000000033e-11 0.8625369350504793 +3.00000000000001e-11 0.8765354195938024 +4.499999999999974e-11 0.8772957459548935 +3.00000000000001e-11 0.8879303732986372 +3.999999999999986e-11 0.8894513435951772 +3.00000000000001e-11 0.8978343077830447 +3.999999999999986e-11 0.8979412841290028 +2.0000000000000345e-11 0.9032385642307956 +4.499999999999974e-11 0.9038059553849422 +2.0000000000000345e-11 0.9080937766583511 +3.999999999999986e-11 0.9095790306235361 +2.5000000000000224e-11 0.9163763679124416 +3.499999999999998e-11 0.9166733757027933 +1.9999999999999517e-11 0.9183818689684625 +3.999999999999986e-11 0.9188182928133946 +1.5000000000000465e-11 0.9212275928536335 +3.999999999999986e-11 0.9222751209079676 +1.5000000000000465e-11 0.9263176300325541 +3.499999999999998e-11 0.9267575824267658 +1.9999999999999517e-11 0.927113754501198 +3.999999999999986e-11 0.9286729494933094 +1.0000000000000586e-11 0.930937137132455 +4.499999999999974e-11 0.9304902822158462 +4.999999999999879e-12 0.9318397215512267 +6.00000000000002e-11 0.9340245781281654 +5.49999999999995e-11 0.9365597168943913 +1.0000000000000586e-11 0.934803228269044 +4.999999999999962e-11 0.9357066354548387 +3.999999999999986e-11 0.9379609683770787 +3.00000000000001e-11 0.9384469047509676 +5.000000000000045e-11 0.9405256545761391 +1.9999999999999517e-11 0.9392069888906449 +3.999999999999986e-11 0.9411133430635497 +2.5000000000000224e-11 0.9422106238482812 +3.00000000000001e-11 0.9415488418649831 +3.00000000000001e-11 0.9406944996135853 +2.5000000000000224e-11 0.942602654336241 +2.9999999999999276e-11 0.9427530518170403 +3.499999999999998e-11 0.9433205683526259 +3.00000000000001e-11 0.9440452219501121 +3.499999999999998e-11 0.9449019697313761 +2.5000000000000224e-11 0.9449946378035687 +5.000000000000045e-11 0.9459502436847771 +1.9999999999999517e-11 0.9448166997004519 +6.500000000000009e-11 0.944958279095688 +1.4999999999999638e-11 0.9460102979590523 +8.000000000000055e-11 0.9471215421982376 +4.999999999999879e-12 0.9460356733455347 +9.000000000000031e-11 0.9465126293317868 +1.0499999999999995e-10 0.9470846514614097 +1.0999999999999983e-10 0.947544322416578 +3.00000000000001e-11 0.9477181369972189 +1.0000000000000007e-10 0.9474561087109822 +1.6499999999999933e-10 0.9470986823934059 +2.5000000000000224e-11 0.9471874696392898 +3.000000000000002e-10 0.94732039459079 +1.2499999999999946e-10 0.9475080976902185 +{GAP_POS} 0.9475080976902185 +0.0 1.0002601633751371 +2.185e-09 0.9963920082439474 +1.0000000000000172e-11 1.0004158834127053 +1.2499999999999988e-10 0.9970787274251812 +1.0000000000000172e-11 1.0011654325808426 +5.4999999999999913e-11 1.0019140655878975 +6.500000000000009e-11 1.0039596878008887 +1.999999999999993e-11 1.0034475987698954 +4.999999999999879e-12 1.0040164300032872 +4.0000000000000275e-11 1.0049290092273364 +2.999999999999969e-11 1.0075587763489218 +5.000000000000293e-12 1.0044151705328292 +1.999999999999993e-11 1.0084213874086463 +4.999999999999879e-12 1.0106543761389954 +1.999999999999993e-11 1.0122196927805964 +1.0000000000000172e-11 1.007079113563168 +1.500000000000005e-11 1.0189691882291327 +9.999999999999759e-12 1.00070968282069 +1.500000000000005e-11 1.0149650586771966 +1.0000000000000172e-11 1.008654275539174 +1.500000000000005e-11 1.0165628367284827 +1.500000000000005e-11 1.0015596744035469 +9.999999999999759e-12 1.0083428619949089 +1.500000000000005e-11 1.00020689802985 +1.0000000000000172e-11 1.0138730502672273 +1.500000000000005e-11 1.003046865131554 +4.999999999999879e-12 1.0075712985036014 +9.999999999999759e-12 1.0024048577811677 +1.0000000000000172e-11 1.0015436072162174 +1.0000000000000172e-11 0.9908241864105243 +4.999999999999879e-12 1.0045685291600401 +1.500000000000005e-11 0.9942979316630762 +4.999999999999879e-12 0.998456272498945 +1.500000000000005e-11 1.0029306109982372 +1.500000000000005e-11 0.9932254307524347 +3.499999999999998e-11 0.971513220622945 +1.999999999999993e-11 0.993490039954242 +4.999999999999879e-12 0.9663356308152978 +2.0000000000000345e-11 0.9719431377163996 +4.999999999999879e-12 0.9562513094781903 +2.499999999999981e-11 0.9691081122545285 +5.000000000000293e-12 0.9257517978696098 +4.999999999999879e-12 0.9415210761455834 +1.999999999999993e-11 0.9340817299972124 +4.999999999999879e-12 0.9194677403008628 +1.0000000000000172e-11 0.9202035668236056 +4.999999999999879e-12 0.9178419675657006 +1.0000000000000172e-11 0.9057419487278177 +4.999999999999879e-12 0.896824945022379 +1.500000000000005e-11 0.8877157413662571 +4.999999999999879e-12 0.8847195698961053 +5.000000000000293e-12 0.8880036985768299 +1.4999999999999638e-11 0.874796018232603 +5.000000000000293e-12 0.86131772820797 +9.999999999999759e-12 0.7952553602927076 +5.000000000000293e-12 0.848294882640218 +1.4999999999999638e-11 0.8800449810172334 +1.0000000000000172e-11 0.8107209176886746 +4.999999999999879e-12 0.8296957527325131 +1.500000000000005e-11 0.8435852962515624 +4.999999999999879e-12 0.7935922879044001 +1.0000000000000172e-11 0.8094776152189121 +1.999999999999993e-11 0.785327265164318 +3.499999999999998e-11 0.7462237822443675 +3.499999999999998e-11 0.7053233239977612 +3.499999999999998e-11 0.8268777970484896 +5.000000000000293e-12 0.590769889064712 +2.999999999999969e-11 0.729919694391284 +2.5000000000000224e-11 0.453173011182117 +9.999999999999759e-12 0.5859925412176966 +3.499999999999998e-11 0.710847570605021 +1.500000000000005e-11 0.45598928774038344 +1.500000000000005e-11 0.609673172413571 +1.500000000000005e-11 0.4530961475035726 +1.999999999999993e-11 0.5822594361425049 +1.0000000000000172e-11 0.4031866601961376 +1.999999999999993e-11 0.5368557688617362 +1.999999999999993e-11 0.2585853457820819 +1.0000000000000172e-11 0.47708290176650525 +1.500000000000005e-11 0.3095482855967853 +2.499999999999981e-11 0.1362422934685059 +4.999999999999879e-12 0.35750131799295737 +2.0000000000000345e-11 0.19798340072774034 +2.499999999999981e-11 0.19628388036510225 +2.499999999999981e-11 -0.04959376088023338 +5.000000000000293e-12 0.23688374478241286 +1.500000000000005e-11 0.027754724683562996 +1.999999999999993e-11 -0.018431423587472198 +1.999999999999993e-11 0.09909534152687502 +3.00000000000001e-11 0.20164434618389165 +9.999999999999759e-12 0.05554412771805318 +3.00000000000001e-11 0.1490380018367474 +1.0000000000000172e-11 -0.013379968223570642 +1.4999999999999638e-11 0.01727087818921851 +2.0000000000000345e-11 0.12480017345585306 +3.999999999999986e-11 0.10162780977633686 +6.00000000000002e-11 0.0725735267694473 +3.00000000000001e-11 0.08049627172598144 +3.499999999999998e-11 0.08264394929007504 +3.00000000000001e-11 0.15268755468610873 +4.999999999999879e-12 0.046039533351288665 +3.00000000000001e-11 0.09424500419363395 +4.999999999999879e-12 0.015973183897437147 +1.4999999999999638e-11 0.06809802111797708 +2.0000000000000345e-11 -0.011344222999667614 +4.999999999999879e-12 0.06256577577655374 +3.999999999999986e-11 -0.008292327176177415 +9.999999999999759e-12 0.04773358264240486 +3.00000000000001e-11 -0.004178554355802695 +9.999999999999759e-12 0.05049044027977592 +2.5000000000000224e-11 0.027410384349814246 +2.5000000000000224e-11 0.0479460360429818 +9.999999999999759e-12 0.033860148881754246 +2.0000000000000345e-11 0.049033131441222656 +9.999999999999759e-12 0.02981506674196851 +3.999999999999986e-11 0.03709029704402554 +4.500000000000057e-11 0.022884526893977457 +3.999999999999986e-11 0.025661481841713563 +5.49999999999995e-11 0.01760960678372355 +2.5000000000000224e-11 0.01947034068328603 +5.500000000000033e-11 0.01453223437815178 +1.4999999999999638e-11 0.015758860613635666 +5.000000000000045e-11 0.014379437981134618 +1.9999999999999517e-11 0.013177527470009012 +3.499999999999998e-11 0.012297460353078337 +2.0000000000000345e-11 0.011373579477643008 +3.00000000000001e-11 0.011004365175062931 +1.9999999999999517e-11 0.010340616171014548 +3.00000000000001e-11 0.009724560162130177 +2.5000000000000224e-11 0.008954333219008119 +1.9999999999999517e-11 0.00877969213281905 +3.00000000000001e-11 0.008039719906102766 +1.0000000000000586e-11 0.008059467831796457 +3.999999999999986e-11 0.007188699041859753 +1.4999999999999638e-11 0.007058300322140598 +2.0000000000000345e-11 0.006658547051823465 +4.999999999999879e-12 0.006713607949008213 +3.00000000000001e-11 0.006261556105774224 +9.999999999999759e-12 0.006072857474154677 +1.5000000000000465e-11 0.005966452611467259 +2.4999999999999397e-11 0.005574733820982481 +3.00000000000001e-11 0.0051093486825649495 +4.999999999999879e-12 0.005187294547298563 +3.00000000000001e-11 0.00476496574003827 +9.999999999999759e-12 0.004783563622967114 +9.000000000000031e-11 0.0037128301961254634 +4.999999999999879e-12 0.003810156690690224 +6.500000000000009e-11 0.0032724763748163514 +3.00000000000001e-11 0.003002528737863937 +3.499999999999998e-11 0.002776263740505857 +4.499999999999974e-11 0.002487313819948947 +5.000000000000045e-11 0.0021930373288565467 +4.999999999999879e-12 0.002155638273854548 +3.499999999999998e-11 0.0019763365482168564 +1.4999999999999638e-11 0.0018874553268631552 +2.5000000000000224e-11 0.0017767669255226942 +2.0000000000000345e-11 0.0016678672851841918 +1.9999999999999517e-11 0.0015998723625735224 +2.0000000000000345e-11 0.0015017578588803998 +1.9999999999999517e-11 0.0014341997536063758 +2.0000000000000345e-11 0.0013435074246848564 +3.00000000000001e-11 0.0012483527431683369 +1.4999999999999638e-11 0.0011881113549661794 +3.499999999999998e-11 0.0010799130161549954 +5.0000000000007065e-12 0.0010612296957236687 +5.49999999999995e-11 0.0008981963054809858 +5.500000000000033e-11 0.0007582697365973867 +7.499999999999984e-11 0.0005556162510589098 +9.999999999999759e-12 0.0005626565004138035 +6.00000000000002e-11 0.00042781483441509073 +3.00000000000001e-11 0.00039173755668654047 +3.499999999999998e-11 0.00032772287571700923 +6.999999999999997e-11 0.00022784437377185466 +3.00000000000001e-11 0.00018432042058357038 +8.999999999999948e-11 8.860253660752879e-05 +1.0000000000000586e-11 7.878237154925472e-05 +1.5999999999999945e-10 -7.750509237384311e-05 +1.1000000000000065e-10 -0.00015002010348433683 +2.1999999999999965e-10 -0.0002592348168537539 +2.099999999999999e-10 -0.0003350788180585912 +2.7999999999999986e-10 -0.0003646434511337643 +1.3899999999999995e-09 -0.000501805906380144 +4.250000000000005e-10 -0.0005029071084879685 +{GAP_NEG} -0.0005029071084879685) ENDREPEAT
V17 K_U_HIGH 0 1
V18 K_U_LOW 0 0