*********************************************************************
*
* IBIS filename: hct1g08.ibs
* Component: 74HCT1G08_GV
* Model: HCT1G08_OUTN_50
* Model Type: Output
* Corner: FastStrong
* Voltage Range (V): [5.0 4.5 5.5] (Typ, Min, Max)
* Temperature Range (degC): [35.0 -35.0 95.0] (Typ, Min, Max)
* SPICE subcircuit model created with pybis2spice version 1.0
* For more info, visit https://github.com/kamratia1/pybis2spice/
*
* Note: This model may only work in LTSpice.
* Stimulus Options: 
*	1 - Oscillate at given freq and duty
*	2 - Inverted Oscillate at given freq and duty
*	3 - Rising Edge with delay
*	4 - Falling Edge with delay
*	5 - Stuck High
*	6 - Stuck Low
*	7 - HighZ (if 3-State output)

*********************************************************************

.SUBCKT HCT1G08_OUTN_50-Output-FastStrong OUT params: stimulus=1 freq=10Meg duty=0.5 delay=0 

.param C_pkg = 4.174e-13
.param L_pkg = 1.309e-09
.param R_pkg = 0.08199
.param C_comp = 2.78e-12

R1 OUT MID {R_pkg}
L1 DIE MID {L_pkg}
C1 OUT 0 {C_pkg}
C2 DIE 0 {C_comp}

V3 PULLUP_REF 0 5.5
B3 DIE PULLUP_REF I={V(Ku)*table(V(DIE), -5.5, -0.2842, -5.333, -0.28308, -5.167, -0.28197, -5.0, -0.28085, -4.833, -0.27974, -4.667, -0.27862, -4.5, -0.2775, -4.3332999999999995, -0.27639, -4.1667000000000005, -0.27527, -4.0, -0.27415, -3.8332999999999995, -0.27304, -3.6667000000000005, -0.27192, -3.5, -0.2708, -3.3332999999999995, -0.26969, -3.1667000000000005, -0.26857, -3.0, -0.26745, -2.8332999999999995, -0.26634, -2.6667000000000005, -0.26522, -2.5, -0.2641, -2.3333000000000004, -0.26299, -2.1666999999999996, -0.26187, -2.0, -0.26075, -1.8333000000000004, -0.25964, -1.6666999999999996, -0.25852, -1.5, -0.2574, -1.3333000000000004, -0.25629, -1.1666999999999996, -0.25517, -1.0, -0.25406, -0.8333000000000004, -0.25294, -0.6666999999999996, -0.25182, -0.5, -0.25071, -0.3333000000000004, -0.24959, -0.16669999999999963, -0.24847, 0.0, -0.24736, 0.16669999999999963, -0.24624, 0.3333000000000004, -0.24512, 0.5, -0.24401, 0.6666999999999996, -0.24293, 0.8333000000000004, -0.24186, 1.0, -0.24066, 1.1666999999999996, -0.23896, 1.3333000000000004, -0.23674, 1.5, -0.234, 1.6667, -0.23074, 1.8333, -0.22695, 2.0, -0.22262, 2.1667, -0.21776, 2.3333, -0.21235, 2.5, -0.20639, 2.6667, -0.19989, 2.8333, -0.19282, 3.0, -0.18519, 3.1667, -0.177, 3.3333, -0.16824, 3.5, -0.1589, 3.6667, -0.14898, 3.8333, -0.13847, 4.0, -0.12737, 4.1667000000000005, -0.11568, 4.3332999999999995, -0.10338, 4.5, -0.090475, 4.66667, -0.076958, 4.83333, -0.062824, 5.0, -0.048067, 5.16667, -0.032681, 5.33333, -0.01666, 5.5, 6.3545e-11, 5.66667, 0.016918, 5.83333, 0.03371, 6.0, 0.050378, 6.16667, 0.056301, 6.33333, 0.070325, 6.5, 0.084328, 6.6667000000000005, 0.099073, 6.8332999999999995, 0.13824, 7.0, 0.20728, 7.1667000000000005, 0.2837, 7.3332999999999995, 0.36341, 7.5, 0.44513, 7.6667000000000005, 0.52832, 7.8332999999999995, 0.61266, 8.0, 0.69793, 8.1667, 0.78324, 8.3333, 0.86896, 8.5, 0.9558, 8.6667, 1.0438, 8.8333, 1.1331, 9.0, 1.2238, 9.1667, 1.3161, 9.3333, 1.4099, 9.5, 1.5056, 9.666699999999999, 1.6013, 9.833300000000001, 1.6971, 10.0, 1.7945, 10.166699999999999, 1.8937, 10.333300000000001, 1.9954, 10.5, 2.1011, 10.666699999999999, 2.2164, 10.833300000000001, 2.3924, 11.0, 2.5184)}
V4 PULLDOWN_REF 0 0
B4 DIE PULLDOWN_REF I={V(Kd)*table(V(DIE), -5.5, -2.6156, -5.3333, -2.52, -5.1667, -2.424, -5.0, -2.3275, -4.8333, -2.23, -4.6667, -2.1313, -4.5, -2.0301, -4.3333, -1.9224, -4.1667, -1.7329, -4.0, -1.5858, -3.8333, -1.4706, -3.6667, -1.3632, -3.5, -1.2602, -3.3333, -1.1603, -3.1667, -1.0629, -3.0, -0.96395, -2.8333, -0.86856, -2.6667, -0.77619, -2.5, -0.68662, -2.3333, -0.59999, -2.1667, -0.5158, -2.0, -0.43274, -1.8333, -0.35119, -1.6667, -0.27201, -1.5, -0.19741, -1.3333, -0.13684, -1.1667, -0.11351, -1.0, -0.098643, -0.83333, -0.083402, -0.66667, -0.067698, -0.5, -0.051518, -0.33333, -0.03485, -0.16667, -0.022232, 0.0, -1.0988e-11, 0.16667, 0.021864, 0.33333, 0.041837, 0.5, 0.060063, 0.66667, 0.07667, 0.83333, 0.091774, 1.0, 0.10548, 1.1667, 0.11789, 1.3333, 0.12908, 1.5, 0.13914, 1.6667, 0.14813, 1.8333, 0.15614, 2.0, 0.1632, 2.1667, 0.16939, 2.3333, 0.17476, 2.5, 0.17935, 2.6667, 0.18321, 2.8333, 0.18637, 3.0, 0.18888, 3.1667, 0.19077, 3.3333, 0.19207, 3.5, 0.19282, 3.6667, 0.19332, 3.8333, 0.19382, 4.0, 0.19433, 4.1667, 0.19483, 4.3333, 0.19533, 4.5, 0.19584, 4.6667, 0.19634, 4.8333, 0.19685, 5.0, 0.19736, 5.1667, 0.19787, 5.3333, 0.19837, 5.5, 0.19888, 5.6667, 0.19939, 5.8333, 0.1999, 6.0, 0.2004, 6.1667, 0.20091, 6.3333, 0.20142, 6.5, 0.20192, 6.6667, 0.20243, 6.8333, 0.20294, 7.0, 0.20345, 7.1667, 0.20395, 7.3333, 0.20446, 7.5, 0.20497, 7.6667, 0.20548, 7.8333, 0.20598, 8.0, 0.20649, 8.1667, 0.207, 8.3333, 0.20751, 8.5, 0.20801, 8.6667, 0.20852, 8.8333, 0.20903, 9.0, 0.20954, 9.1667, 0.21004, 9.3333, 0.21055, 9.5, 0.21106, 9.6667, 0.21157, 9.8333, 0.21207, 10.0, 0.21258, 10.167, 0.21309, 10.333, 0.2136, 10.5, 0.2141, 10.667, 0.21461, 10.833, 0.21512, 11.0, 0.21562)}

.model SW SW(Ron=1n Roff=1G Vt=.5 Vh=-.4)


* Setup the Stimulus setting options for the Pullup Waveform (Ku)
V10 OSC 0 {if(stimulus_==1, 1, 0)}
V11 OSC_INV 0 {if(stimulus_==2, 1, 0)}
V12 RISE 0 {if(stimulus_==3, 1, 0)}
V13 FALL 0 {if(stimulus_==4, 1, 0)}
V14 HIGH 0 {if(stimulus_==5, 1, 0)}
V15 LOW 0 {if(stimulus_==6, 1, 0)}
S1 Ku K_U_OSC OSC 0 SW
S2 Ku K_U_OSC_INV OSC_INV 0 SW
S3 Ku K_U_RISE RISE 0 SW
S4 Ku K_U_FALL FALL 0 SW
S5 Ku K_U_HIGH HIGH 0 SW
S6 Ku K_U_LOW LOW 0 SW

* Setup the Stimulus setting options for the Pulldown Waveform (Kd)
S7 Kd K_D_OSC OSC 0 SW
S8 Kd K_D_OSC_INV OSC_INV 0 SW
S9 Kd K_D_RISE RISE 0 SW
S10 Kd K_D_FALL FALL 0 SW
S11 Kd K_D_HIGH HIGH 0 SW
S12 Kd K_D_LOW LOW 0 SW

* Define Oscillation Sources
.param calc_gap_pos = {(duty/freq) - 1.90907e-09 - 4.5455e-10}
.param calc_gap_neg = {((1-duty)/freq) - 6.91385e-09 - 2.7273e-10}

.param GAP_POS = {if(calc_gap_pos <= 0, 0.1e-12, calc_gap_pos)}
.param GAP_NEG = {if(calc_gap_neg <= 0, 0.1e-12, calc_gap_neg)}

.param stimulus_ = {if(stimulus < 1, 1, if(stimulus > 6, 6, stimulus)}

V16 K_U_OSC 0 PWL REPEAT FOREVER (0 -0.015288640571773022 +0.01e-12 -0.015288640571773022 +6.8182e-11 -0.03712377255444117 +6.817800000000001e-11 0.058982391149822795 +6.819e-11 0.20058974588986458 +6.817999999999999e-11 0.46979001909136964 +6.818000000000002e-11 0.7374918646238838 +6.817999999999997e-11 0.8313796183213974 +6.818000000000007e-11 0.8762430305030056 +6.817999999999997e-11 0.9099108085304877 +6.818999999999995e-11 0.9340125588513937 +6.818000000000007e-11 0.9529685371671505 +6.817999999999997e-11 0.9684368701370913 +6.817999999999997e-11 0.9788644701826034 +6.818000000000007e-11 0.9858868534407879 +6.818999999999995e-11 0.9905432521930756 +6.815000000000002e-11 0.9936946499055651 +6.820000000000003e-11 0.9957377923950634 +6.820000000000003e-11 0.9971182243163178 +6.820000000000003e-11 0.9980192913223971 +6.819999999999983e-11 0.9986905967354115 +6.81e-11 0.9991950334487923 +6.820000000000003e-11 0.9995152074870434 +6.820000000000003e-11 0.9997010203127952 +6.820000000000003e-11 0.9998612348093804 +6.820000000000003e-11 0.999953908426707 +6.81e-11 1.000066056961516 +6.820000000000003e-11 1.000133731122125 +3.408999999999997e-10 1.000114132983401 +6.820000000000024e-11 1.0001593815135073 +{GAP_POS} 1.0001593815135073 +0.0 1.0022156170108025 +4.5455e-11 0.9924778091391733 +2.2726999999999996e-11 1.0043364336981568 +2.272700000000001e-11 0.9720917762176321 +4.5451000000000004e-11 0.9306894337895714 +4.545999999999999e-11 0.8687871164931649 +2.2730000000000008e-11 0.862701824750686 +2.272e-11 0.8240901900138771 +4.545999999999999e-11 0.7565558826004358 +4.544999999999998e-11 0.6552220767971595 +2.2730000000000034e-11 0.6258179599964008 +2.2729999999999983e-11 0.47996814191273934 +4.544999999999998e-11 0.292889690428898 +4.5460000000000017e-11 0.16115664010407135 +2.2720000000000052e-11 0.12908024694290804 +2.2729999999999983e-11 0.14339864060065055 +4.544999999999998e-11 0.17076589478961746 +4.5459999999999965e-11 0.15413702370591195 +2.2729999999999983e-11 0.14218496991193633 +2.272e-11 0.14148330517906846 +4.546000000000007e-11 0.11650813014217343 +4.544999999999998e-11 0.09868801736963453 +2.2729999999999983e-11 0.07879685114816508 +2.2729999999999983e-11 0.07125726073486642 +4.544999999999998e-11 0.05039810621858167 +4.546000000000007e-11 0.03521665466925388 +2.272e-11 0.027395084652042632 +2.2729999999999983e-11 0.022708429837343846 +4.5459999999999965e-11 0.014984175952449783 +4.5450000000000086e-11 0.010948948094167845 +2.2699999999999932e-11 0.009622133189415976 +2.2799999999999963e-11 0.008554537320337377 +4.540000000000007e-11 0.0067090012153178035 +4.5499999999999895e-11 0.005342109534930206 +2.270000000000014e-11 0.004734858020081507 +2.2699999999999932e-11 0.0042450915259123175 +4.55000000000001e-11 0.0033765791319274817 +4.5399999999999864e-11 0.0026906322379267695 +2.2799999999999963e-11 0.002389121953800864 +2.270000000000014e-11 0.0021411651631773887 +4.5399999999999864e-11 0.001704798823689857 +4.55000000000001e-11 0.0013575499345097673 +2.2699999999999932e-11 0.0012065491492530517 +2.270000000000014e-11 0.0010820087453676883 +4.5499999999999895e-11 0.0008634630034837519 +4.55000000000001e-11 0.000689586343668636 +2.2699999999999932e-11 0.0006139975632663151 +2.2699999999999932e-11 0.000551204628288009 +4.55000000000001e-11 0.00044092016964819374 +4.5399999999999864e-11 0.00035332644542759905 +2.270000000000014e-11 0.000315324479287999 +2.2799999999999963e-11 0.00028339699952140883 +4.540000000000007e-11 0.00022773721565510127 +4.5499999999999895e-11 0.00018322453006413525 +2.2699999999999932e-11 0.00016387573734642866 +2.270000000000014e-11 0.00014771153537501504 +4.5499999999999895e-11 0.00011926342197145093 +4.5399999999999864e-11 9.651784666090253e-05 +2.2800000000000376e-11 8.656805933515447e-05 +2.2699999999999932e-11 7.823977776884214e-05 +4.5499999999999895e-11 6.353047349565509e-05 +4.5399999999999864e-11 5.1708607406379785e-05 +2.2699999999999932e-11 4.654659799549566e-05 +2.2800000000000376e-11 4.216795118250718e-05 +4.5399999999999864e-11 3.4493635303433426e-05 +4.5499999999999895e-11 2.8295284408616327e-05 +2.2699999999999932e-11 2.5585771993116446e-05 +2.2699999999999932e-11 2.330762025962459e-05 +4.550000000000031e-11 1.9294002867545477e-05 +4.5399999999999864e-11 1.6111609458370356e-05 +2.2799999999999963e-11 1.474012912649623e-05 +2.2699999999999932e-11 1.3499705712571689e-05 +4.540000000000028e-11 1.1111210810389042e-05 +4.5499999999999895e-11 9.219817399990468e-06 +2.2699999999999932e-11 8.609450611670998e-06 +6.819999999999983e-11 6.775574124387152e-06 +9.10000000000031e-12 6.660967969733646e-06 +5.909999999999993e-11 5.490035266575804e-06 +4.090000000000014e-11 4.80689872021065e-06 +2.729999999999969e-11 4.454946008790769e-06 +7.269999999999997e-11 3.593793116726635e-06 +6.360000000000007e-11 3.0372107114188217e-06 +3.64e-11 2.764592508778417e-06 +3.180000000000024e-11 2.5657709966591503e-06 +6.819999999999983e-11 2.1723618812723557e-06 +6.819999999999983e-11 1.8684244219511277e-06 +3.180000000000024e-11 1.7487154046883522e-06 +1.0000000000000007e-10 1.4372682840154773e-06 +4.499999999999726e-12 1.4261538379498872e-06 +2.046000000000003e-10 1.0065010592762117e-06 +6.819999999999983e-11 9.078295725258376e-07 +2.2699999999999932e-11 8.808554723263608e-07 +3.000000000000002e-10 6.105590932478175e-07 +1.0000000000000007e-10 5.491818889691366e-07 +1.0000000000000007e-10 4.97412239195575e-07 +6.999999999999997e-10 2.8095199785149266e-07 +1.0000000000000007e-10 2.622006440754932e-07 +1.0000000000000007e-10 2.452799365974336e-07 +2.3e-09 8.001927035341178e-08 +1.499999999999997e-10 7.565779474200446e-08 +1.840000000000068e-11 7.51926628225483e-08 +{GAP_NEG} 7.51926628225483e-08) ENDREPEAT
V17 K_U_HIGH 0 1
V18 K_U_LOW 0 0
V19 K_U_OSC_INV 0 PWL REPEAT FOREVER (0 1.0022156170108025 +0.01e-12 1.0022156170108025 +4.5455e-11 0.9924778091391733 +2.2726999999999996e-11 1.0043364336981568 +2.272700000000001e-11 0.9720917762176321 +4.5451000000000004e-11 0.9306894337895714 +4.545999999999999e-11 0.8687871164931649 +2.2730000000000008e-11 0.862701824750686 +2.272e-11 0.8240901900138771 +4.545999999999999e-11 0.7565558826004358 +4.544999999999998e-11 0.6552220767971595 +2.2730000000000034e-11 0.6258179599964008 +2.2729999999999983e-11 0.47996814191273934 +4.544999999999998e-11 0.292889690428898 +4.5460000000000017e-11 0.16115664010407135 +2.2720000000000052e-11 0.12908024694290804 +2.2729999999999983e-11 0.14339864060065055 +4.544999999999998e-11 0.17076589478961746 +4.5459999999999965e-11 0.15413702370591195 +2.2729999999999983e-11 0.14218496991193633 +2.272e-11 0.14148330517906846 +4.546000000000007e-11 0.11650813014217343 +4.544999999999998e-11 0.09868801736963453 +2.2729999999999983e-11 0.07879685114816508 +2.2729999999999983e-11 0.07125726073486642 +4.544999999999998e-11 0.05039810621858167 +4.546000000000007e-11 0.03521665466925388 +2.272e-11 0.027395084652042632 +2.2729999999999983e-11 0.022708429837343846 +4.5459999999999965e-11 0.014984175952449783 +4.5450000000000086e-11 0.010948948094167845 +2.2699999999999932e-11 0.009622133189415976 +2.2799999999999963e-11 0.008554537320337377 +4.540000000000007e-11 0.0067090012153178035 +4.5499999999999895e-11 0.005342109534930206 +2.270000000000014e-11 0.004734858020081507 +2.2699999999999932e-11 0.0042450915259123175 +4.55000000000001e-11 0.0033765791319274817 +4.5399999999999864e-11 0.0026906322379267695 +2.2799999999999963e-11 0.002389121953800864 +2.270000000000014e-11 0.0021411651631773887 +4.5399999999999864e-11 0.001704798823689857 +4.55000000000001e-11 0.0013575499345097673 +2.2699999999999932e-11 0.0012065491492530517 +2.270000000000014e-11 0.0010820087453676883 +4.5499999999999895e-11 0.0008634630034837519 +4.55000000000001e-11 0.000689586343668636 +2.2699999999999932e-11 0.0006139975632663151 +2.2699999999999932e-11 0.000551204628288009 +4.55000000000001e-11 0.00044092016964819374 +4.5399999999999864e-11 0.00035332644542759905 +2.270000000000014e-11 0.000315324479287999 +2.2799999999999963e-11 0.00028339699952140883 +4.540000000000007e-11 0.00022773721565510127 +4.5499999999999895e-11 0.00018322453006413525 +2.2699999999999932e-11 0.00016387573734642866 +2.270000000000014e-11 0.00014771153537501504 +4.5499999999999895e-11 0.00011926342197145093 +4.5399999999999864e-11 9.651784666090253e-05 +2.2800000000000376e-11 8.656805933515447e-05 +2.2699999999999932e-11 7.823977776884214e-05 +4.5499999999999895e-11 6.353047349565509e-05 +4.5399999999999864e-11 5.1708607406379785e-05 +2.2699999999999932e-11 4.654659799549566e-05 +2.2800000000000376e-11 4.216795118250718e-05 +4.5399999999999864e-11 3.4493635303433426e-05 +4.5499999999999895e-11 2.8295284408616327e-05 +2.2699999999999932e-11 2.5585771993116446e-05 +2.2699999999999932e-11 2.330762025962459e-05 +4.550000000000031e-11 1.9294002867545477e-05 +4.5399999999999864e-11 1.6111609458370356e-05 +2.2799999999999963e-11 1.474012912649623e-05 +2.2699999999999932e-11 1.3499705712571689e-05 +4.540000000000028e-11 1.1111210810389042e-05 +4.5499999999999895e-11 9.219817399990468e-06 +2.2699999999999932e-11 8.609450611670998e-06 +6.819999999999983e-11 6.775574124387152e-06 +9.10000000000031e-12 6.660967969733646e-06 +5.909999999999993e-11 5.490035266575804e-06 +4.090000000000014e-11 4.80689872021065e-06 +2.729999999999969e-11 4.454946008790769e-06 +7.269999999999997e-11 3.593793116726635e-06 +6.360000000000007e-11 3.0372107114188217e-06 +3.64e-11 2.764592508778417e-06 +3.180000000000024e-11 2.5657709966591503e-06 +6.819999999999983e-11 2.1723618812723557e-06 +6.819999999999983e-11 1.8684244219511277e-06 +3.180000000000024e-11 1.7487154046883522e-06 +1.0000000000000007e-10 1.4372682840154773e-06 +4.499999999999726e-12 1.4261538379498872e-06 +2.046000000000003e-10 1.0065010592762117e-06 +6.819999999999983e-11 9.078295725258376e-07 +2.2699999999999932e-11 8.808554723263608e-07 +3.000000000000002e-10 6.105590932478175e-07 +1.0000000000000007e-10 5.491818889691366e-07 +1.0000000000000007e-10 4.97412239195575e-07 +6.999999999999997e-10 2.8095199785149266e-07 +1.0000000000000007e-10 2.622006440754932e-07 +1.0000000000000007e-10 2.452799365974336e-07 +2.3e-09 8.001927035341178e-08 +1.499999999999997e-10 7.565779474200446e-08 +1.840000000000068e-11 7.51926628225483e-08 +{GAP_POS} 7.51926628225483e-08 +0.0 -0.015288640571773022 +6.8182e-11 -0.03712377255444117 +6.817800000000001e-11 0.058982391149822795 +6.819e-11 0.20058974588986458 +6.817999999999999e-11 0.46979001909136964 +6.818000000000002e-11 0.7374918646238838 +6.817999999999997e-11 0.8313796183213974 +6.818000000000007e-11 0.8762430305030056 +6.817999999999997e-11 0.9099108085304877 +6.818999999999995e-11 0.9340125588513937 +6.818000000000007e-11 0.9529685371671505 +6.817999999999997e-11 0.9684368701370913 +6.817999999999997e-11 0.9788644701826034 +6.818000000000007e-11 0.9858868534407879 +6.818999999999995e-11 0.9905432521930756 +6.815000000000002e-11 0.9936946499055651 +6.820000000000003e-11 0.9957377923950634 +6.820000000000003e-11 0.9971182243163178 +6.820000000000003e-11 0.9980192913223971 +6.819999999999983e-11 0.9986905967354115 +6.81e-11 0.9991950334487923 +6.820000000000003e-11 0.9995152074870434 +6.820000000000003e-11 0.9997010203127952 +6.820000000000003e-11 0.9998612348093804 +6.820000000000003e-11 0.999953908426707 +6.81e-11 1.000066056961516 +6.820000000000003e-11 1.000133731122125 +3.408999999999997e-10 1.000114132983401 +6.820000000000024e-11 1.0001593815135073 +{GAP_NEG} 1.0001593815135073) ENDREPEAT
V20 K_U_RISE 0 PWL({delay}, -0.015288640571773022, {delay+6.8182e-11}, -0.03712377255444117, {delay+1.3636e-10}, 0.058982391149822795, {delay+2.0455e-10}, 0.20058974588986458, {delay+2.7273e-10}, 0.46979001909136964, {delay+3.4091e-10}, 0.7374918646238838, {delay+4.0909e-10}, 0.8313796183213974, {delay+4.7727e-10}, 0.8762430305030056, {delay+5.4545e-10}, 0.9099108085304877, {delay+6.1364e-10}, 0.9340125588513937, {delay+6.8182e-10}, 0.9529685371671505, {delay+7.5e-10}, 0.9684368701370913, {delay+8.1818e-10}, 0.9788644701826034, {delay+8.8636e-10}, 0.9858868534407879, {delay+9.5455e-10}, 0.9905432521930756, {delay+1.0227e-09}, 0.9936946499055651, {delay+1.0909e-09}, 0.9957377923950634, {delay+1.1591e-09}, 0.9971182243163178, {delay+1.2273e-09}, 0.9980192913223971, {delay+1.2955e-09}, 0.9986905967354115, {delay+1.3636e-09}, 0.9991950334487923, {delay+1.4318e-09}, 0.9995152074870434, {delay+1.5e-09}, 0.9997010203127952, {delay+1.5682e-09}, 0.9998612348093804, {delay+1.6364e-09}, 0.999953908426707, {delay+1.7045e-09}, 1.000066056961516, {delay+1.7727e-09}, 1.000133731122125, {delay+2.1136e-09}, 1.000114132983401, {delay+2.1818e-09}, 1.0001593815135073)
V21 K_U_FALL 0 PWL({delay}, 1.0022156170108025, {delay+4.5455e-11}, 0.9924778091391733, {delay+6.8182e-11}, 1.0043364336981568, {delay+9.0909e-11}, 0.9720917762176321, {delay+1.3636e-10}, 0.9306894337895714, {delay+1.8182e-10}, 0.8687871164931649, {delay+2.0455e-10}, 0.862701824750686, {delay+2.2727e-10}, 0.8240901900138771, {delay+2.7273e-10}, 0.7565558826004358, {delay+3.1818e-10}, 0.6552220767971595, {delay+3.4091e-10}, 0.6258179599964008, {delay+3.6364e-10}, 0.47996814191273934, {delay+4.0909e-10}, 0.292889690428898, {delay+4.5455e-10}, 0.16115664010407135, {delay+4.7727e-10}, 0.12908024694290804, {delay+5e-10}, 0.14339864060065055, {delay+5.4545e-10}, 0.17076589478961746, {delay+5.9091e-10}, 0.15413702370591195, {delay+6.1364e-10}, 0.14218496991193633, {delay+6.3636e-10}, 0.14148330517906846, {delay+6.8182e-10}, 0.11650813014217343, {delay+7.2727e-10}, 0.09868801736963453, {delay+7.5e-10}, 0.07879685114816508, {delay+7.7273e-10}, 0.07125726073486642, {delay+8.1818e-10}, 0.05039810621858167, {delay+8.6364e-10}, 0.03521665466925388, {delay+8.8636e-10}, 0.027395084652042632, {delay+9.0909e-10}, 0.022708429837343846, {delay+9.5455e-10}, 0.014984175952449783, {delay+1e-09}, 0.010948948094167845, {delay+1.0227e-09}, 0.009622133189415976, {delay+1.0455e-09}, 0.008554537320337377, {delay+1.0909e-09}, 0.0067090012153178035, {delay+1.1364e-09}, 0.005342109534930206, {delay+1.1591e-09}, 0.004734858020081507, {delay+1.1818e-09}, 0.0042450915259123175, {delay+1.2273e-09}, 0.0033765791319274817, {delay+1.2727e-09}, 0.0026906322379267695, {delay+1.2955e-09}, 0.002389121953800864, {delay+1.3182e-09}, 0.0021411651631773887, {delay+1.3636e-09}, 0.001704798823689857, {delay+1.4091e-09}, 0.0013575499345097673, {delay+1.4318e-09}, 0.0012065491492530517, {delay+1.4545e-09}, 0.0010820087453676883, {delay+1.5e-09}, 0.0008634630034837519, {delay+1.5455e-09}, 0.000689586343668636, {delay+1.5682e-09}, 0.0006139975632663151, {delay+1.5909e-09}, 0.000551204628288009, {delay+1.6364e-09}, 0.00044092016964819374, {delay+1.6818e-09}, 0.00035332644542759905, {delay+1.7045e-09}, 0.000315324479287999, {delay+1.7273e-09}, 0.00028339699952140883, {delay+1.7727e-09}, 0.00022773721565510127, {delay+1.8182e-09}, 0.00018322453006413525, {delay+1.8409e-09}, 0.00016387573734642866, {delay+1.8636e-09}, 0.00014771153537501504, {delay+1.9091e-09}, 0.00011926342197145093, {delay+1.9545e-09}, 9.651784666090253e-05, {delay+1.9773e-09}, 8.656805933515447e-05, {delay+2e-09}, 7.823977776884214e-05, {delay+2.0455e-09}, 6.353047349565509e-05, {delay+2.0909e-09}, 5.1708607406379785e-05, {delay+2.1136e-09}, 4.654659799549566e-05, {delay+2.1364e-09}, 4.216795118250718e-05, {delay+2.1818e-09}, 3.4493635303433426e-05, {delay+2.2273e-09}, 2.8295284408616327e-05, {delay+2.25e-09}, 2.5585771993116446e-05, {delay+2.2727e-09}, 2.330762025962459e-05, {delay+2.3182e-09}, 1.9294002867545477e-05, {delay+2.3636e-09}, 1.6111609458370356e-05, {delay+2.3864e-09}, 1.474012912649623e-05, {delay+2.4091e-09}, 1.3499705712571689e-05, {delay+2.4545e-09}, 1.1111210810389042e-05, {delay+2.5e-09}, 9.219817399990468e-06, {delay+2.5227e-09}, 8.609450611670998e-06, {delay+2.5909e-09}, 6.775574124387152e-06, {delay+2.6e-09}, 6.660967969733646e-06, {delay+2.6591e-09}, 5.490035266575804e-06, {delay+2.7e-09}, 4.80689872021065e-06, {delay+2.7273e-09}, 4.454946008790769e-06, {delay+2.8e-09}, 3.593793116726635e-06, {delay+2.8636e-09}, 3.0372107114188217e-06, {delay+2.9e-09}, 2.764592508778417e-06, {delay+2.9318e-09}, 2.5657709966591503e-06, {delay+3e-09}, 2.1723618812723557e-06, {delay+3.0682e-09}, 1.8684244219511277e-06, {delay+3.1e-09}, 1.7487154046883522e-06, {delay+3.2e-09}, 1.4372682840154773e-06, {delay+3.2045e-09}, 1.4261538379498872e-06, {delay+3.4091e-09}, 1.0065010592762117e-06, {delay+3.4773e-09}, 9.078295725258376e-07, {delay+3.5e-09}, 8.808554723263608e-07, {delay+3.8e-09}, 6.105590932478175e-07, {delay+3.9e-09}, 5.491818889691366e-07, {delay+4e-09}, 4.97412239195575e-07, {delay+4.7e-09}, 2.8095199785149266e-07, {delay+4.8e-09}, 2.622006440754932e-07, {delay+4.9e-09}, 2.452799365974336e-07, {delay+7.2e-09}, 8.001927035341178e-08, {delay+7.35e-09}, 7.565779474200446e-08, {delay+7.3684e-09}, 7.51926628225483e-08)
V36 K_D_OSC 0 PWL REPEAT FOREVER (0 1.0080130234407707 +0.01e-12 1.0080130234407707 +6.8182e-11 0.9286251124975127 +6.817800000000001e-11 0.75371949110362 +6.819e-11 0.4212959719414485 +6.817999999999999e-11 0.4547642427856574 +6.818000000000002e-11 0.4360215308162856 +6.817999999999997e-11 0.2924657658645237 +6.818000000000007e-11 0.1760972124331072 +6.817999999999997e-11 0.09965526041681108 +6.818999999999995e-11 0.055024724816678916 +6.818000000000007e-11 0.03197886898142159 +6.817999999999997e-11 0.02004385182903375 +6.817999999999997e-11 0.012895855850535999 +6.818000000000007e-11 0.00837080674033042 +6.818999999999995e-11 0.005426133576846885 +6.815000000000002e-11 0.0035284500630694917 +6.820000000000003e-11 0.002277119990840006 +6.820000000000003e-11 0.001479917517135107 +6.820000000000003e-11 0.0009404636748407103 +6.819999999999983e-11 0.0005806656782884916 +6.81e-11 0.00038094598009991387 +6.820000000000003e-11 0.00026047170869127403 +6.820000000000003e-11 0.00016040965461147148 +6.820000000000003e-11 0.00010012357954013041 +6.820000000000003e-11 6.031423124667219e-05 +6.81e-11 6.0319867856366066e-05 +6.820000000000003e-11 3.9827228321407127e-05 +3.408999999999997e-10 -3.195507470858316e-10 +6.820000000000024e-11 -3.195652046373482e-10 +{GAP_POS} -3.195652046373482e-10 +0.0 -0.014761022904397878 +4.5455e-11 -0.04387021614252894 +2.2726999999999996e-11 -0.05073449709901226 +2.272700000000001e-11 -0.05597918367098988 +4.5451000000000004e-11 -0.04566747113507476 +4.545999999999999e-11 -0.01704143121257926 +2.2730000000000008e-11 0.011054446716725305 +2.272e-11 0.03678773518375509 +4.545999999999999e-11 0.09128115873235551 +4.544999999999998e-11 0.13839722499663365 +2.2730000000000034e-11 0.16943663818414179 +2.2729999999999983e-11 0.17353938582980763 +4.544999999999998e-11 0.18792421038998158 +4.5460000000000017e-11 0.18804081614605317 +2.2720000000000052e-11 0.21693490925555842 +2.2729999999999983e-11 0.2448001545980651 +4.544999999999998e-11 0.3804564495045763 +4.5459999999999965e-11 0.45566272399335855 +2.2729999999999983e-11 0.5113616574350867 +2.272e-11 0.5583357245724289 +4.546000000000007e-11 0.6143290658527581 +4.544999999999998e-11 0.7166217698521863 +2.2729999999999983e-11 0.6901602776729607 +2.2729999999999983e-11 0.7321280567666184 +4.544999999999998e-11 0.7684502398598873 +4.546000000000007e-11 0.8283096405859888 +2.272e-11 0.8266745637588888 +2.2729999999999983e-11 0.847140753096736 +4.5459999999999965e-11 0.8754210056137108 +4.5450000000000086e-11 0.9059753366709576 +2.2699999999999932e-11 0.9115340891998625 +2.2799999999999963e-11 0.9210908678663674 +4.540000000000007e-11 0.9368857228640917 +4.5499999999999895e-11 0.9517862477986859 +2.270000000000014e-11 0.955863458421198 +2.2699999999999932e-11 0.9610103300028409 +4.55000000000001e-11 0.969172440129492 +4.5399999999999864e-11 0.976264684627952 +2.2799999999999963e-11 0.9783138869882652 +2.270000000000014e-11 0.9807907971248355 +4.5399999999999864e-11 0.9847752510077766 +4.55000000000001e-11 0.9882766474453432 +2.2699999999999932e-11 0.9892764562463748 +2.270000000000014e-11 0.9904875601502633 +4.5499999999999895e-11 0.9924482701188435 +4.55000000000001e-11 0.9941631591052719 +2.2699999999999932e-11 0.9946753016264885 +2.2699999999999932e-11 0.9952844856925228 +4.55000000000001e-11 0.9962873461777126 +4.5399999999999864e-11 0.9971742151410213 +2.270000000000014e-11 0.9974444414446348 +2.2799999999999963e-11 0.9977639025983485 +4.540000000000007e-11 0.9982899863436302 +4.5499999999999895e-11 0.9987592817994657 +2.2699999999999932e-11 0.9989091105604598 +2.270000000000014e-11 0.9990825140530204 +4.5499999999999895e-11 0.9993661017942983 +4.5399999999999864e-11 0.9996139344889556 +2.2800000000000376e-11 0.9996940953777241 +2.2699999999999932e-11 0.9997857778356133 +4.5499999999999895e-11 0.999935467141895 +4.5399999999999864e-11 1.0000659018860214 +2.2699999999999932e-11 1.0001066477967402 +2.2800000000000376e-11 1.000154056445762 +4.5399999999999864e-11 1.000233657627957 +4.5499999999999895e-11 1.0003055584031435 +2.2699999999999932e-11 1.000329281107997 +2.2699999999999932e-11 1.0003562956854346 +4.550000000000031e-11 1.000403119128779 +4.5399999999999864e-11 1.0004460882042878 +2.2799999999999963e-11 1.0004595240126741 +2.2699999999999932e-11 1.0004746283738386 +4.540000000000028e-11 1.0004962796690713 +4.5499999999999895e-11 1.0005133751415174 +2.2699999999999932e-11 1.0005227706771342 +6.819999999999983e-11 1.0005466158804934 +9.10000000000031e-12 1.000549253159506 +5.909999999999993e-11 1.0005652721334966 +4.090000000000014e-11 1.0005766890229644 +2.729999999999969e-11 1.000580196469621 +7.269999999999997e-11 1.0005896906618192 +6.360000000000007e-11 1.0005985102665667 +3.64e-11 1.0006036725060816 +3.180000000000024e-11 1.0006082847096716 +6.819999999999983e-11 1.0006138783340621 +6.819999999999983e-11 1.0006174719705807 +3.180000000000024e-11 1.0006222899824826 +1.0000000000000007e-10 1.0006229675822758 +4.499999999999726e-12 1.0006273225926268 +2.046000000000003e-10 1.0006328482484745 +6.819999999999983e-11 1.0006369756462137 +2.2699999999999932e-11 1.0006405670792866 +3.000000000000002e-10 1.0006428196364006 +1.0000000000000007e-10 1.000644653304334 +1.0000000000000007e-10 1.0006518527182575 +6.999999999999997e-10 1.0006529636760435 +1.0000000000000007e-10 1.0006549081907548 +1.0000000000000007e-10 1.0006621983392088 +2.3e-09 1.0006634424612804 +1.499999999999997e-10 1.0006654244083473 +1.840000000000068e-11 1.000666772698268 +{GAP_NEG} 1.000666772698268) ENDREPEAT
V37 K_D_HIGH 0 0
V38 K_D_LOW 0 1