*********************************************************************
*
* IBIS filename: hct1g08.ibs
* Component: 74HCT1G08_GV
* Model: HCT1G08_OUTN_50
* Model Type: Output
* Corner: Typical
* Voltage Range (V): [5.0 4.5 5.5] (Typ, Min, Max)
* Temperature Range (degC): [35.0 -35.0 95.0] (Typ, Min, Max)
* SPICE subcircuit model created with pybis2spice version 1.0
* For more info, visit https://github.com/kamratia1/pybis2spice/
*
* Note: This model may only work in LTSpice.
* Stimulus Options: 
*	1 - Oscillate at given freq and duty
*	2 - Inverted Oscillate at given freq and duty
*	3 - Rising Edge with delay
*	4 - Falling Edge with delay
*	5 - Stuck High
*	6 - Stuck Low
*	7 - HighZ (if 3-State output)

*********************************************************************

.SUBCKT HCT1G08_OUTN_50-Output-Typical OUT params: stimulus=1 freq=10Meg duty=0.5 delay=0 

.param C_pkg = 2.711e-13
.param L_pkg = 1.305e-09
.param R_pkg = 0.08192
.param C_comp = 2.32e-12

R1 OUT MID {R_pkg}
L1 DIE MID {L_pkg}
C1 OUT 0 {C_pkg}
C2 DIE 0 {C_comp}

V3 PULLUP_REF 0 5.0
B3 DIE PULLUP_REF I={V(Ku)*table(V(DIE), -6.0, -0.10535, -5.833, -0.105, -5.667, -0.10466, -5.5, -0.10431, -5.333, -0.10397, -5.167, -0.10362, -5.0, -0.10328, -4.8332999999999995, -0.10293, -4.6667000000000005, -0.10258, -4.5, -0.10224, -4.3332999999999995, -0.10189, -4.1667000000000005, -0.10155, -4.0, -0.1012, -3.8332999999999995, -0.10086, -3.6667000000000005, -0.10051, -3.5, -0.10017, -3.3332999999999995, -0.09982, -3.1667000000000005, -0.099475, -3.0, -0.099129, -2.8333000000000004, -0.098784, -2.6666999999999996, -0.098438, -2.5, -0.098093, -2.3333000000000004, -0.097747, -2.1666999999999996, -0.097402, -2.0, -0.097056, -1.8333000000000004, -0.096711, -1.6666999999999996, -0.096366, -1.5, -0.09602, -1.3333000000000004, -0.095675, -1.1666999999999996, -0.095329, -1.0, -0.094984, -0.8333000000000004, -0.094638, -0.6666999999999996, -0.094293, -0.5, -0.093947, -0.3333000000000004, -0.093602, -0.16669999999999963, -0.093256, 0.0, -0.092911, 0.16669999999999963, -0.092565, 0.3333000000000004, -0.09222, 0.5, -0.091874, 0.6666999999999996, -0.091529, 0.8333000000000004, -0.091185, 1.0, -0.090838, 1.1667, -0.090305, 1.3333, -0.08949, 1.5, -0.088392, 1.6667, -0.087011, 1.8333, -0.085347, 2.0, -0.0834, 2.1667, -0.081171, 2.3333, -0.078658, 2.5, -0.075863, 2.6667, -0.072785, 2.8333, -0.069425, 3.0, -0.065781, 3.1667, -0.061855, 3.3333, -0.057646, 3.5, -0.053154, 3.6667, -0.048379, 3.8333, -0.043321, 4.0, -0.037981, 4.16667, -0.032358, 4.33333, -0.026452, 4.5, -0.020263, 4.66667, -0.013792, 4.83333, -0.0070372, 5.0, 1.1188e-10, 5.16667, 0.0071723, 5.33333, 0.014332, 5.5, 0.02148, 5.66667, 0.026497, 5.83333, 0.033154, 6.0, 0.041576, 6.1667000000000005, 0.078809, 6.3332999999999995, 0.14544, 6.5, 0.22, 6.6667000000000005, 0.29752, 6.8332999999999995, 0.37677, 7.0, 0.45722, 7.1667000000000005, 0.53854, 7.3332999999999995, 0.62055, 7.5, 0.70312, 7.6667000000000005, 0.78608, 7.8332999999999995, 0.86909, 8.0, 0.95237, 8.1667, 1.0361, 8.3333, 1.1203, 8.5, 1.205, 8.6667, 1.2904, 8.8333, 1.3765, 9.0, 1.4633, 9.166699999999999, 1.551, 9.333300000000001, 1.6393, 9.5, 1.7278, 9.666699999999999, 1.8174, 9.833300000000001, 1.9084, 10.0, 2.002, 10.166699999999999, 2.11, 10.333300000000001, 2.2478, 10.5, 2.3429)}
V4 PULLDOWN_REF 0 0
B4 DIE PULLDOWN_REF I={V(Kd)*table(V(DIE), -5.5, -2.3731, -5.3333, -2.2836, -5.1667, -2.194, -5.0, -2.1041, -4.8333, -2.0139, -4.6667, -1.9232, -4.5, -1.8317, -4.3333, -1.7382, -4.1667, -1.6349, -4.0, -1.4879, -3.8333, -1.3887, -3.6667, -1.2952, -3.5, -1.2043, -3.3333, -1.1151, -3.1667, -1.026, -3.0, -0.93888, -2.8333, -0.85332, -2.6667, -0.769, -2.5, -0.68586, -2.3333, -0.60338, -2.1667, -0.52144, -2.0, -0.44019, -1.8333, -0.35988, -1.6667, -0.28092, -1.5, -0.20412, -1.3333, -0.13141, -1.1667, -0.071264, -1.0, -0.048216, -0.83333, -0.04036, -0.66667, -0.032677, -0.5, -0.024807, -0.33333, -0.016741, -0.16667, -0.0093959, 0.0, -1.7002e-11, 0.16667, 0.009198, 0.33333, 0.017691, 0.5, 0.025512, 0.66667, 0.032695, 0.83333, 0.039268, 1.0, 0.04526, 1.1667, 0.050697, 1.3333, 0.055605, 1.5, 0.060005, 1.6667, 0.063922, 1.8333, 0.067374, 2.0, 0.070382, 2.1667, 0.072964, 2.3333, 0.075138, 2.5, 0.076921, 2.6667, 0.078327, 2.8333, 0.079372, 3.0, 0.08007, 3.1667, 0.080434, 3.3333, 0.080613, 3.5, 0.080791, 3.6667, 0.08097, 3.8333, 0.081149, 4.0, 0.081327, 4.1667, 0.081506, 4.3333, 0.081685, 4.5, 0.081865, 4.6667, 0.082044, 4.8333, 0.082223, 5.0, 0.082402, 5.1667, 0.082581, 5.3333, 0.08276, 5.5, 0.082939, 5.6667, 0.083118, 5.8333, 0.083298, 6.0, 0.083477, 6.1667, 0.083656, 6.3333, 0.083835, 6.5, 0.084014, 6.6667, 0.084193, 6.8333, 0.084372, 7.0, 0.084551, 7.1667, 0.08473, 7.3333, 0.08491, 7.5, 0.085089, 7.6667, 0.085268, 7.8333, 0.085447, 8.0, 0.085626, 8.1667, 0.085805, 8.3333, 0.085984, 8.5, 0.086163, 8.6667, 0.086342, 8.8333, 0.086522, 9.0, 0.086701, 9.1667, 0.08688, 9.3333, 0.087059, 9.5, 0.087238, 9.6667, 0.087417, 9.8333, 0.087596, 10.0, 0.087775, 10.167, 0.087954, 10.333, 0.088134, 10.5, 0.088313, 10.667, 0.088492, 10.833, 0.088671, 11.0, 0.08885)}

.model SW SW(Ron=1n Roff=1G Vt=.5 Vh=-.4)


* Setup the Stimulus setting options for the Pullup Waveform (Ku)
V10 OSC 0 {if(stimulus_==1, 1, 0)}
V11 OSC_INV 0 {if(stimulus_==2, 1, 0)}
V12 RISE 0 {if(stimulus_==3, 1, 0)}
V13 FALL 0 {if(stimulus_==4, 1, 0)}
V14 HIGH 0 {if(stimulus_==5, 1, 0)}
V15 LOW 0 {if(stimulus_==6, 1, 0)}
S1 Ku K_U_OSC OSC 0 SW
S2 Ku K_U_OSC_INV OSC_INV 0 SW
S3 Ku K_U_RISE RISE 0 SW
S4 Ku K_U_FALL FALL 0 SW
S5 Ku K_U_HIGH HIGH 0 SW
S6 Ku K_U_LOW LOW 0 SW

* Setup the Stimulus setting options for the Pulldown Waveform (Kd)
S7 Kd K_D_OSC OSC 0 SW
S8 Kd K_D_OSC_INV OSC_INV 0 SW
S9 Kd K_D_RISE RISE 0 SW
S10 Kd K_D_FALL FALL 0 SW
S11 Kd K_D_HIGH HIGH 0 SW
S12 Kd K_D_LOW LOW 0 SW

* Define Oscillation Sources
.param calc_gap_pos = {(duty/freq) - 5.1e-09 - 1.2955e-09}
.param calc_gap_neg = {((1-duty)/freq) - 8.9675e-09 - 7.5e-10}

.param GAP_POS = {if(calc_gap_pos <= 0, 0.1e-12, calc_gap_pos)}
.param GAP_NEG = {if(calc_gap_neg <= 0, 0.1e-12, calc_gap_neg)}

.param stimulus_ = {if(stimulus < 1, 1, if(stimulus > 6, 6, stimulus)}

V16 K_U_OSC 0 PWL REPEAT FOREVER (0 0.0012496052318647472 +0.01e-12 0.0012496052318647472 +6.8182e-11 -0.01192202550306406 +6.817800000000001e-11 -0.04307625416357007 +6.819e-11 -0.054693099520919296 +6.817999999999999e-11 -0.04190080060554488 +6.818000000000002e-11 -0.013333464921824632 +6.817999999999997e-11 0.027872027121704664 +6.818000000000007e-11 0.07316305889241412 +6.817999999999997e-11 0.11994599697389896 +6.818999999999995e-11 0.17022260045183926 +6.818000000000007e-11 0.23027915549879843 +6.817999999999997e-11 0.298149440577206 +6.817999999999997e-11 0.38560404584800284 +6.818000000000007e-11 0.4839798628073762 +6.818999999999995e-11 0.5755197341616678 +6.815000000000002e-11 0.659864899126812 +6.820000000000003e-11 0.733687231593495 +6.820000000000003e-11 0.7802334082324046 +6.820000000000003e-11 0.8124113713322006 +6.819999999999983e-11 0.8370336020629174 +6.81e-11 0.8573348593237049 +6.820000000000003e-11 0.8735249766609935 +6.820000000000003e-11 0.8875177987711877 +6.820000000000003e-11 0.8991317921385165 +6.820000000000003e-11 0.9102332573675471 +6.81e-11 0.9211115848053234 +6.820000000000003e-11 0.9312996318196783 +6.819999999999983e-11 0.9400758278591669 +6.820000000000003e-11 0.9476760554735534 +6.820000000000024e-11 0.9545444744351885 +6.819999999999983e-11 0.9605946230079001 +6.80999999999998e-11 0.9658393394633235 +6.820000000000024e-11 0.970386852682657 +6.819999999999983e-11 0.9743161922168445 +6.820000000000024e-11 0.977698945194451 +6.819999999999983e-11 0.9806461558137268 +6.810000000000021e-11 0.9832072340990569 +6.819999999999983e-11 0.9853967401939008 +6.819999999999983e-11 0.9872968198867335 +6.820000000000024e-11 0.9889560874209721 +6.819999999999983e-11 0.990432071700997 +6.820000000000024e-11 0.991750734516141 +6.80999999999998e-11 0.9927905411194363 +6.820000000000024e-11 0.9937463281286325 +6.819999999999983e-11 0.9945540000564034 +6.819999999999983e-11 0.9953146231904477 +6.820000000000024e-11 0.9959723696263227 +6.80999999999998e-11 0.9964983925437034 +6.820000000000024e-11 0.997014629154007 +6.819999999999983e-11 0.9974319012892712 +6.820000000000024e-11 0.9977543453214727 +6.819999999999983e-11 0.9980995392345544 +6.819999999999983e-11 0.9983817550945836 +6.810000000000021e-11 0.9986031501416028 +6.819999999999983e-11 0.9988535344646293 +6.819999999999983e-11 0.9990348299141308 +1.5000000000000052e-10 0.9993469721515162 +1.499999999999997e-10 0.9995975423196207 +1.5000000000000052e-10 0.9998228764601668 +1.499999999999997e-10 0.999982629230806 +1.499999999999997e-10 1.000048875743552 +1.5000000000000052e-10 1.0001632243119603 +1.499999999999997e-10 1.0002086724461356 +1.499999999999997e-10 1.0002054008726835 +1.5000000000000052e-10 1.0002502390355374 +1.499999999999997e-10 1.0002749279012462 +4.499999999999999e-10 1.0003197703637121 +1.5000000000000052e-10 1.0003444601576101 +{GAP_POS} 1.0003444601576101 +0.0 0.9904451464625625 +4.5455e-11 1.027674346085835 +2.2726999999999996e-11 1.0221381422318916 +2.272700000000001e-11 1.0084542089681 +4.5451000000000004e-11 0.9958924825278143 +4.545999999999999e-11 0.9780802698857276 +2.2730000000000008e-11 0.9741997449191043 +2.272e-11 0.962416190320649 +4.545999999999999e-11 0.9432560585143049 +4.544999999999998e-11 0.9225919334228665 +2.2730000000000034e-11 0.9156179229790307 +2.2729999999999983e-11 0.9028746316578641 +4.544999999999998e-11 0.8814986965167713 +4.5460000000000017e-11 0.8561292755391614 +2.2720000000000052e-11 0.8481064918369409 +2.2729999999999983e-11 0.8319662450862205 +4.544999999999998e-11 0.8050292397892932 +4.5459999999999965e-11 0.7724664256390018 +2.2729999999999983e-11 0.7614247632513854 +2.272e-11 0.7381785702177477 +4.546000000000007e-11 0.6952255100258722 +4.544999999999998e-11 0.636005016785988 +2.2729999999999983e-11 0.6132738696711945 +2.2729999999999983e-11 0.5775135142484533 +4.544999999999998e-11 0.5243177025969904 +4.546000000000007e-11 0.4725919694267362 +2.272e-11 0.4501249525312869 +2.2729999999999983e-11 0.42529341315049995 +4.5459999999999965e-11 0.3801169824793119 +4.5450000000000086e-11 0.33575750571731106 +2.2699999999999932e-11 0.3148604779608282 +2.2799999999999963e-11 0.29572272687104745 +4.540000000000007e-11 0.26629998125940624 +4.5499999999999895e-11 0.24029925803502236 +2.270000000000014e-11 0.22490070847718047 +2.2699999999999932e-11 0.21908203660964903 +4.55000000000001e-11 0.20027311324655359 +4.5399999999999864e-11 0.1831418122167913 +2.2799999999999963e-11 0.17283912418092948 +2.270000000000014e-11 0.16884349066923915 +4.5399999999999864e-11 0.15596264580396213 +4.55000000000001e-11 0.14381474000797725 +2.2699999999999932e-11 0.13719229325376026 +2.270000000000014e-11 0.1337576634455444 +4.5499999999999895e-11 0.12470490885061707 +4.55000000000001e-11 0.11566483576756381 +2.2699999999999932e-11 0.11192776454701127 +2.2699999999999932e-11 0.10929003608493312 +4.55000000000001e-11 0.1048506162928881 +4.5399999999999864e-11 0.09860720540383326 +2.270000000000014e-11 0.09642463101423573 +2.2799999999999963e-11 0.09381287316001122 +4.540000000000007e-11 0.08718165488709229 +4.5499999999999895e-11 0.08029557015450241 +2.2699999999999932e-11 0.07628082333213036 +2.270000000000014e-11 0.07338834001969138 +4.5499999999999895e-11 0.06613047588807779 +4.5399999999999864e-11 0.05937763750577704 +2.2800000000000376e-11 0.05549316872775689 +2.2699999999999932e-11 0.05267114244513065 +4.5499999999999895e-11 0.04642142332311056 +4.5399999999999864e-11 0.04090461706932008 +2.2699999999999932e-11 0.03784177326038606 +2.2800000000000376e-11 0.03570205099342756 +4.5399999999999864e-11 0.03108008183759352 +4.5499999999999895e-11 0.02702507430234056 +2.2699999999999932e-11 0.0248378372653725 +2.2699999999999932e-11 0.023328043175987485 +4.550000000000031e-11 0.020013382274574505 +4.5399999999999864e-11 0.017269195704097844 +2.2799999999999963e-11 0.015758408308571226 +2.2699999999999932e-11 0.014771368848243963 +4.540000000000028e-11 0.012694213664013406 +4.5499999999999895e-11 0.011370645527605529 +2.2699999999999932e-11 0.010709841138054777 +6.819999999999983e-11 0.008767345134126291 +9.10000000000031e-12 0.009659076597758243 +5.909999999999993e-11 0.009836940221551595 +4.090000000000014e-11 0.009397937848197214 +2.729999999999969e-11 0.009001466229129866 +6.820000000000024e-11 0.008036558360461313 +4.499999999999726e-12 0.008022126049121907 +6.360000000000007e-11 0.00718935980236976 +3.64e-11 0.006781384472816018 +3.180000000000024e-11 0.006417192038811432 +6.819999999999983e-11 0.005696731679759315 +6.819999999999983e-11 0.005030182410565969 +3.180000000000024e-11 0.004779177516882922 +3.64e-11 0.004482192392124391 +6.360000000000007e-11 0.004012796028494162 +4.499999999999726e-12 0.00397852830841251 +6.820000000000024e-11 0.003513896300801398 +2.7300000000000102e-11 0.003366683069026 +4.0899999999999724e-11 0.003133228148993111 +5.909999999999993e-11 0.002828286779046645 +9.10000000000031e-12 0.002783810139279948 +6.819999999999983e-11 0.0024576378320669188 +2.2699999999999932e-11 0.00237554604232247 +4.5499999999999895e-11 0.0021938725512990866 +5.4500000000000174e-11 0.0019977261595163103 +1.3600000000000036e-11 0.0019517491668586049 +6.819999999999983e-11 0.0017233525504937168 +1.8200000000000206e-11 0.0016807353135279838 +4.999999999999962e-11 0.0015409923993613267 +5.000000000000045e-11 0.0014163348423231728 +1.0000000000000007e-10 0.0011961445227504826 +1.0000000000000007e-10 0.0010124143717409018 +4.999999999999962e-11 0.0009312568214763181 +5.000000000000045e-11 0.0008584649607269985 +1.0000000000000007e-10 0.0007294960517541336 +9.999999999999924e-11 0.000621239975097989 +5.000000000000045e-11 0.0005732812174585533 +4.999999999999962e-11 0.000530061756001728 +1.0000000000000007e-10 0.00045317517407749786 +1.0000000000000007e-10 0.00038812739314842613 +5.000000000000045e-11 0.00035915915199704565 +4.999999999999962e-11 0.0003329127613164372 +1.0000000000000007e-10 0.00028598702171895777 +1.0000000000000007e-10 0.0002460145981665639 +4.999999999999962e-11 0.00022814555803487907 +5.000000000000045e-11 0.00021297485663302493 +1.0000000000000007e-10 0.00018593414681088836 +1.499999999999997e-10 0.00014531595382063497 +1.3199999999999913e-11 0.00014453311289423313 +1.368000000000006e-10 0.00011981577167994468 +1.2629999999999945e-10 9.880623456359214e-05 +2.370000000000024e-11 9.59204696363155e-05 +1.499999999999997e-10 7.766390307216829e-05 +8.950000000000057e-11 6.798561849084738e-05 +6.049999999999995e-11 6.300470344323347e-05 +1.499999999999997e-10 5.065106921175524e-05 +5.260000000000042e-11 4.7129644301997147e-05 +9.739999999999927e-11 4.166719643142573e-05 +1.5000000000000052e-10 3.325240571788682e-05 +1.5799999999999883e-11 3.291243286488042e-05 +1.341999999999998e-10 2.7759042934815828e-05 +1.2890000000000025e-10 2.317926943307024e-05 +2.1100000000000268e-11 2.2622450673099677e-05 +1.499999999999997e-10 1.8663289474037352e-05 +9.209999999999971e-11 1.648377449153349e-05 +5.7899999999999976e-11 1.542808371569938e-05 +1.5000000000000052e-10 1.2692970373552175e-05 +5.5300000000000005e-11 1.185604158037465e-05 +9.469999999999968e-11 1.065556811631939e-05 +1.6840000000000037e-10 8.63850674094303e-06 +1.31599999999999e-10 7.473454737921671e-06 +1.3160000000000066e-10 6.389423137140226e-06 +2.6309999999999923e-10 4.8071800254931385e-06 +2.632000000000013e-10 3.6867309607474306e-06 +1.31599999999999e-10 3.273260353835631e-06 +1.3160000000000066e-10 2.8868557621344187e-06 +1.5789e-09 1.0365260953848734e-06 +2.6300000000000044e-10 1.036532934976373e-06 +{GAP_NEG} 1.036532934976373e-06) ENDREPEAT
V17 K_U_HIGH 0 1
V18 K_U_LOW 0 0
V19 K_U_OSC_INV 0 PWL REPEAT FOREVER (0 0.9904451464625625 +0.01e-12 0.9904451464625625 +4.5455e-11 1.027674346085835 +2.2726999999999996e-11 1.0221381422318916 +2.272700000000001e-11 1.0084542089681 +4.5451000000000004e-11 0.9958924825278143 +4.545999999999999e-11 0.9780802698857276 +2.2730000000000008e-11 0.9741997449191043 +2.272e-11 0.962416190320649 +4.545999999999999e-11 0.9432560585143049 +4.544999999999998e-11 0.9225919334228665 +2.2730000000000034e-11 0.9156179229790307 +2.2729999999999983e-11 0.9028746316578641 +4.544999999999998e-11 0.8814986965167713 +4.5460000000000017e-11 0.8561292755391614 +2.2720000000000052e-11 0.8481064918369409 +2.2729999999999983e-11 0.8319662450862205 +4.544999999999998e-11 0.8050292397892932 +4.5459999999999965e-11 0.7724664256390018 +2.2729999999999983e-11 0.7614247632513854 +2.272e-11 0.7381785702177477 +4.546000000000007e-11 0.6952255100258722 +4.544999999999998e-11 0.636005016785988 +2.2729999999999983e-11 0.6132738696711945 +2.2729999999999983e-11 0.5775135142484533 +4.544999999999998e-11 0.5243177025969904 +4.546000000000007e-11 0.4725919694267362 +2.272e-11 0.4501249525312869 +2.2729999999999983e-11 0.42529341315049995 +4.5459999999999965e-11 0.3801169824793119 +4.5450000000000086e-11 0.33575750571731106 +2.2699999999999932e-11 0.3148604779608282 +2.2799999999999963e-11 0.29572272687104745 +4.540000000000007e-11 0.26629998125940624 +4.5499999999999895e-11 0.24029925803502236 +2.270000000000014e-11 0.22490070847718047 +2.2699999999999932e-11 0.21908203660964903 +4.55000000000001e-11 0.20027311324655359 +4.5399999999999864e-11 0.1831418122167913 +2.2799999999999963e-11 0.17283912418092948 +2.270000000000014e-11 0.16884349066923915 +4.5399999999999864e-11 0.15596264580396213 +4.55000000000001e-11 0.14381474000797725 +2.2699999999999932e-11 0.13719229325376026 +2.270000000000014e-11 0.1337576634455444 +4.5499999999999895e-11 0.12470490885061707 +4.55000000000001e-11 0.11566483576756381 +2.2699999999999932e-11 0.11192776454701127 +2.2699999999999932e-11 0.10929003608493312 +4.55000000000001e-11 0.1048506162928881 +4.5399999999999864e-11 0.09860720540383326 +2.270000000000014e-11 0.09642463101423573 +2.2799999999999963e-11 0.09381287316001122 +4.540000000000007e-11 0.08718165488709229 +4.5499999999999895e-11 0.08029557015450241 +2.2699999999999932e-11 0.07628082333213036 +2.270000000000014e-11 0.07338834001969138 +4.5499999999999895e-11 0.06613047588807779 +4.5399999999999864e-11 0.05937763750577704 +2.2800000000000376e-11 0.05549316872775689 +2.2699999999999932e-11 0.05267114244513065 +4.5499999999999895e-11 0.04642142332311056 +4.5399999999999864e-11 0.04090461706932008 +2.2699999999999932e-11 0.03784177326038606 +2.2800000000000376e-11 0.03570205099342756 +4.5399999999999864e-11 0.03108008183759352 +4.5499999999999895e-11 0.02702507430234056 +2.2699999999999932e-11 0.0248378372653725 +2.2699999999999932e-11 0.023328043175987485 +4.550000000000031e-11 0.020013382274574505 +4.5399999999999864e-11 0.017269195704097844 +2.2799999999999963e-11 0.015758408308571226 +2.2699999999999932e-11 0.014771368848243963 +4.540000000000028e-11 0.012694213664013406 +4.5499999999999895e-11 0.011370645527605529 +2.2699999999999932e-11 0.010709841138054777 +6.819999999999983e-11 0.008767345134126291 +9.10000000000031e-12 0.009659076597758243 +5.909999999999993e-11 0.009836940221551595 +4.090000000000014e-11 0.009397937848197214 +2.729999999999969e-11 0.009001466229129866 +6.820000000000024e-11 0.008036558360461313 +4.499999999999726e-12 0.008022126049121907 +6.360000000000007e-11 0.00718935980236976 +3.64e-11 0.006781384472816018 +3.180000000000024e-11 0.006417192038811432 +6.819999999999983e-11 0.005696731679759315 +6.819999999999983e-11 0.005030182410565969 +3.180000000000024e-11 0.004779177516882922 +3.64e-11 0.004482192392124391 +6.360000000000007e-11 0.004012796028494162 +4.499999999999726e-12 0.00397852830841251 +6.820000000000024e-11 0.003513896300801398 +2.7300000000000102e-11 0.003366683069026 +4.0899999999999724e-11 0.003133228148993111 +5.909999999999993e-11 0.002828286779046645 +9.10000000000031e-12 0.002783810139279948 +6.819999999999983e-11 0.0024576378320669188 +2.2699999999999932e-11 0.00237554604232247 +4.5499999999999895e-11 0.0021938725512990866 +5.4500000000000174e-11 0.0019977261595163103 +1.3600000000000036e-11 0.0019517491668586049 +6.819999999999983e-11 0.0017233525504937168 +1.8200000000000206e-11 0.0016807353135279838 +4.999999999999962e-11 0.0015409923993613267 +5.000000000000045e-11 0.0014163348423231728 +1.0000000000000007e-10 0.0011961445227504826 +1.0000000000000007e-10 0.0010124143717409018 +4.999999999999962e-11 0.0009312568214763181 +5.000000000000045e-11 0.0008584649607269985 +1.0000000000000007e-10 0.0007294960517541336 +9.999999999999924e-11 0.000621239975097989 +5.000000000000045e-11 0.0005732812174585533 +4.999999999999962e-11 0.000530061756001728 +1.0000000000000007e-10 0.00045317517407749786 +1.0000000000000007e-10 0.00038812739314842613 +5.000000000000045e-11 0.00035915915199704565 +4.999999999999962e-11 0.0003329127613164372 +1.0000000000000007e-10 0.00028598702171895777 +1.0000000000000007e-10 0.0002460145981665639 +4.999999999999962e-11 0.00022814555803487907 +5.000000000000045e-11 0.00021297485663302493 +1.0000000000000007e-10 0.00018593414681088836 +1.499999999999997e-10 0.00014531595382063497 +1.3199999999999913e-11 0.00014453311289423313 +1.368000000000006e-10 0.00011981577167994468 +1.2629999999999945e-10 9.880623456359214e-05 +2.370000000000024e-11 9.59204696363155e-05 +1.499999999999997e-10 7.766390307216829e-05 +8.950000000000057e-11 6.798561849084738e-05 +6.049999999999995e-11 6.300470344323347e-05 +1.499999999999997e-10 5.065106921175524e-05 +5.260000000000042e-11 4.7129644301997147e-05 +9.739999999999927e-11 4.166719643142573e-05 +1.5000000000000052e-10 3.325240571788682e-05 +1.5799999999999883e-11 3.291243286488042e-05 +1.341999999999998e-10 2.7759042934815828e-05 +1.2890000000000025e-10 2.317926943307024e-05 +2.1100000000000268e-11 2.2622450673099677e-05 +1.499999999999997e-10 1.8663289474037352e-05 +9.209999999999971e-11 1.648377449153349e-05 +5.7899999999999976e-11 1.542808371569938e-05 +1.5000000000000052e-10 1.2692970373552175e-05 +5.5300000000000005e-11 1.185604158037465e-05 +9.469999999999968e-11 1.065556811631939e-05 +1.6840000000000037e-10 8.63850674094303e-06 +1.31599999999999e-10 7.473454737921671e-06 +1.3160000000000066e-10 6.389423137140226e-06 +2.6309999999999923e-10 4.8071800254931385e-06 +2.632000000000013e-10 3.6867309607474306e-06 +1.31599999999999e-10 3.273260353835631e-06 +1.3160000000000066e-10 2.8868557621344187e-06 +1.5789e-09 1.0365260953848734e-06 +2.6300000000000044e-10 1.036532934976373e-06 +{GAP_POS} 1.036532934976373e-06 +0.0 0.0012496052318647472 +6.8182e-11 -0.01192202550306406 +6.817800000000001e-11 -0.04307625416357007 +6.819e-11 -0.054693099520919296 +6.817999999999999e-11 -0.04190080060554488 +6.818000000000002e-11 -0.013333464921824632 +6.817999999999997e-11 0.027872027121704664 +6.818000000000007e-11 0.07316305889241412 +6.817999999999997e-11 0.11994599697389896 +6.818999999999995e-11 0.17022260045183926 +6.818000000000007e-11 0.23027915549879843 +6.817999999999997e-11 0.298149440577206 +6.817999999999997e-11 0.38560404584800284 +6.818000000000007e-11 0.4839798628073762 +6.818999999999995e-11 0.5755197341616678 +6.815000000000002e-11 0.659864899126812 +6.820000000000003e-11 0.733687231593495 +6.820000000000003e-11 0.7802334082324046 +6.820000000000003e-11 0.8124113713322006 +6.819999999999983e-11 0.8370336020629174 +6.81e-11 0.8573348593237049 +6.820000000000003e-11 0.8735249766609935 +6.820000000000003e-11 0.8875177987711877 +6.820000000000003e-11 0.8991317921385165 +6.820000000000003e-11 0.9102332573675471 +6.81e-11 0.9211115848053234 +6.820000000000003e-11 0.9312996318196783 +6.819999999999983e-11 0.9400758278591669 +6.820000000000003e-11 0.9476760554735534 +6.820000000000024e-11 0.9545444744351885 +6.819999999999983e-11 0.9605946230079001 +6.80999999999998e-11 0.9658393394633235 +6.820000000000024e-11 0.970386852682657 +6.819999999999983e-11 0.9743161922168445 +6.820000000000024e-11 0.977698945194451 +6.819999999999983e-11 0.9806461558137268 +6.810000000000021e-11 0.9832072340990569 +6.819999999999983e-11 0.9853967401939008 +6.819999999999983e-11 0.9872968198867335 +6.820000000000024e-11 0.9889560874209721 +6.819999999999983e-11 0.990432071700997 +6.820000000000024e-11 0.991750734516141 +6.80999999999998e-11 0.9927905411194363 +6.820000000000024e-11 0.9937463281286325 +6.819999999999983e-11 0.9945540000564034 +6.819999999999983e-11 0.9953146231904477 +6.820000000000024e-11 0.9959723696263227 +6.80999999999998e-11 0.9964983925437034 +6.820000000000024e-11 0.997014629154007 +6.819999999999983e-11 0.9974319012892712 +6.820000000000024e-11 0.9977543453214727 +6.819999999999983e-11 0.9980995392345544 +6.819999999999983e-11 0.9983817550945836 +6.810000000000021e-11 0.9986031501416028 +6.819999999999983e-11 0.9988535344646293 +6.819999999999983e-11 0.9990348299141308 +1.5000000000000052e-10 0.9993469721515162 +1.499999999999997e-10 0.9995975423196207 +1.5000000000000052e-10 0.9998228764601668 +1.499999999999997e-10 0.999982629230806 +1.499999999999997e-10 1.000048875743552 +1.5000000000000052e-10 1.0001632243119603 +1.499999999999997e-10 1.0002086724461356 +1.499999999999997e-10 1.0002054008726835 +1.5000000000000052e-10 1.0002502390355374 +1.499999999999997e-10 1.0002749279012462 +4.499999999999999e-10 1.0003197703637121 +1.5000000000000052e-10 1.0003444601576101 +{GAP_NEG} 1.0003444601576101) ENDREPEAT
V20 K_U_RISE 0 PWL({delay}, 0.0012496052318647472, {delay+6.8182e-11}, -0.01192202550306406, {delay+1.3636e-10}, -0.04307625416357007, {delay+2.0455e-10}, -0.054693099520919296, {delay+2.7273e-10}, -0.04190080060554488, {delay+3.4091e-10}, -0.013333464921824632, {delay+4.0909e-10}, 0.027872027121704664, {delay+4.7727e-10}, 0.07316305889241412, {delay+5.4545e-10}, 0.11994599697389896, {delay+6.1364e-10}, 0.17022260045183926, {delay+6.8182e-10}, 0.23027915549879843, {delay+7.5e-10}, 0.298149440577206, {delay+8.1818e-10}, 0.38560404584800284, {delay+8.8636e-10}, 0.4839798628073762, {delay+9.5455e-10}, 0.5755197341616678, {delay+1.0227e-09}, 0.659864899126812, {delay+1.0909e-09}, 0.733687231593495, {delay+1.1591e-09}, 0.7802334082324046, {delay+1.2273e-09}, 0.8124113713322006, {delay+1.2955e-09}, 0.8370336020629174, {delay+1.3636e-09}, 0.8573348593237049, {delay+1.4318e-09}, 0.8735249766609935, {delay+1.5e-09}, 0.8875177987711877, {delay+1.5682e-09}, 0.8991317921385165, {delay+1.6364e-09}, 0.9102332573675471, {delay+1.7045e-09}, 0.9211115848053234, {delay+1.7727e-09}, 0.9312996318196783, {delay+1.8409e-09}, 0.9400758278591669, {delay+1.9091e-09}, 0.9476760554735534, {delay+1.9773e-09}, 0.9545444744351885, {delay+2.0455e-09}, 0.9605946230079001, {delay+2.1136e-09}, 0.9658393394633235, {delay+2.1818e-09}, 0.970386852682657, {delay+2.25e-09}, 0.9743161922168445, {delay+2.3182e-09}, 0.977698945194451, {delay+2.3864e-09}, 0.9806461558137268, {delay+2.4545e-09}, 0.9832072340990569, {delay+2.5227e-09}, 0.9853967401939008, {delay+2.5909e-09}, 0.9872968198867335, {delay+2.6591e-09}, 0.9889560874209721, {delay+2.7273e-09}, 0.990432071700997, {delay+2.7955e-09}, 0.991750734516141, {delay+2.8636e-09}, 0.9927905411194363, {delay+2.9318e-09}, 0.9937463281286325, {delay+3e-09}, 0.9945540000564034, {delay+3.0682e-09}, 0.9953146231904477, {delay+3.1364e-09}, 0.9959723696263227, {delay+3.2045e-09}, 0.9964983925437034, {delay+3.2727e-09}, 0.997014629154007, {delay+3.3409e-09}, 0.9974319012892712, {delay+3.4091e-09}, 0.9977543453214727, {delay+3.4773e-09}, 0.9980995392345544, {delay+3.5455e-09}, 0.9983817550945836, {delay+3.6136e-09}, 0.9986031501416028, {delay+3.6818e-09}, 0.9988535344646293, {delay+3.75e-09}, 0.9990348299141308, {delay+3.9e-09}, 0.9993469721515162, {delay+4.05e-09}, 0.9995975423196207, {delay+4.2e-09}, 0.9998228764601668, {delay+4.35e-09}, 0.999982629230806, {delay+4.5e-09}, 1.000048875743552, {delay+4.65e-09}, 1.0001632243119603, {delay+4.8e-09}, 1.0002086724461356, {delay+4.95e-09}, 1.0002054008726835, {delay+5.1e-09}, 1.0002502390355374, {delay+5.25e-09}, 1.0002749279012462, {delay+5.7e-09}, 1.0003197703637121, {delay+5.85e-09}, 1.0003444601576101)