*********************************************************************
*
* IBIS filename: sn74lv1t34.ibs
* Component: SN74LV1T34DBV
* Model: output_3p3
* Model Type: 3-state
* Corner: Typical
* Voltage Range (V): [3.3 3.0 3.6] (Typ, Min, Max)
* Temperature Range (degC): [40.0 -40.0 140.0] (Typ, Min, Max)
* SPICE subcircuit model created with pybis2spice version 1.0
* For more info, visit https://github.com/kamratia1/pybis2spice/
*
* Note: This model may only work in LTSpice.
* Stimulus Options: 
*	1 - Oscillate at given freq and duty
*	2 - Inverted Oscillate at given freq and duty
*	3 - Rising Edge with delay
*	4 - Falling Edge with delay
*	5 - Stuck High
*	6 - Stuck Low
*	7 - HighZ (if 3-State output)

*********************************************************************

.SUBCKT output_3p3-Output-Typical OUT params: stimulus=1 freq=10Meg duty=0.5 delay=0 

.param C_pkg = 2.6256e-13
.param L_pkg = 1.83153e-09
.param R_pkg = 0.06209
.param C_comp = 3.211e-12

R1 OUT MID {R_pkg}
L1 DIE MID {L_pkg}
C1 OUT 0 {C_pkg}
C2 DIE 0 {C_comp}

V1 PWR_CLAMP_REF 0 3.3
B1 DIE PWR_CLAMP_REF I = table(V(DIE), -3.3, 0.0, 1.6824, 0.0, 2.049, 0.0, 2.1971999999999996, 0.0, 2.4168, 0.0, 2.445, 0.0, 2.6184, 0.0, 2.6189999999999998, 0.0, 2.6201999999999996, 0.0, 2.622, 0.0, 2.8409999999999997, 0.0, 2.8775999999999997, 0.0, 3.114, 1.08259e-08, 3.1151999999999997, 1.08386e-08, 3.2306999999999997, 1.2142e-08, 3.231, 1.21457e-08, 3.2369999999999997, 1.22203e-08, 3.2843999999999998, 1.28851e-08, 3.2988, 1.31299e-08, 3.2999999999999856, 1.31514e-08, 3.3000000000000336, 1.31514e-08, 3.3024, 1.31955e-08, 3.303, 1.32066e-08, 3.4551, 1.63275e-08, 3.456, 1.63479e-08, 3.4572, 1.63751e-08, 3.5244, 1.84334e-08, 3.5256, 1.84858e-08, 3.5309999999999997, 1.87274e-08, 3.5673, 2.09134e-08, 3.5688, 2.10327e-08, 3.5867999999999998, 2.26805e-08, 3.5871, 2.27114e-08, 3.6003, 2.4271e-08, 3.6012, 2.43927e-08, 3.6155999999999997, 2.65704e-08, 3.63, 2.93532e-08, 3.9972, 8.34767e-06, 4.1015999999999995, 4.64767e-05, 4.1118, 5.43412e-05, 4.191, 0.000162573, 4.2108, 0.000206048, 4.212, 0.00020895, 4.2132, 0.000211853, 4.311, 0.000547211, 4.3130999999999995, 0.000556513, 4.3572, 0.000771834, 4.3896, 0.000952388, 4.3919999999999995, 0.000966468, 4.4451, 0.0013016, 4.5045, 0.00172568, 4.5047999999999995, 0.00172795, 4.59, 0.0024172, 4.5903, 0.00241978, 4.635, 0.00281636, 4.659599999999999, 0.0030442, 4.828799999999999, 0.0047822, 4.83, 0.00479553, 4.8312, 0.00480886, 4.8324, 0.00482222, 4.9071, 0.00567929, 4.9079999999999995, 0.00568993, 4.9104, 0.0057183, 4.926, 0.00590403, 4.9269, 0.0059148, 4.929, 0.00593999, 5.0232, 0.00710806, 5.2206, 0.0097879, 5.2212, 0.0097965, 5.289899999999999, 0.0107985, 5.301, 0.0109636, 5.426399999999999, 0.0128881, 5.6424, 0.0164436, 5.643, 0.0164538, 5.646, 0.0165052, 5.694, 0.017335, 5.6958, 0.0173664, 5.6964, 0.0173768, 5.696999999999999, 0.0173873, 5.8728, 0.0205403, 6.105, 0.0249531, 6.1068, 0.0249883, 6.1259999999999994, 0.0253652, 6.131399999999999, 0.0254715, 6.3515999999999995, 0.0299195, 6.6, 0.0351856)
V2 GND_CLAMP_REF 0 0.0
B2 DIE GND_CLAMP_REF I = table(V(DIE), -3.3, -1.0765, -2.385, -0.668658, -2.3793, -0.666132, -2.328, -0.643413, -1.695, -0.365333, -1.6944, -0.365072, -1.6896, -0.362985, -1.689, -0.362724, -1.6512, -0.34631, -1.65, -0.34579, -1.23, -0.166408, -1.2276, -0.165407, -1.221, -0.162658, -1.2192, -0.161909, -1.212, -0.158915, -1.0968, -0.111705, -1.0626, -0.0980215, -1.038, -0.088311, -1.0032, -0.0748074, -1.002, -0.0743479, -0.9999, -0.0735436, -0.9471, -0.0538275, -0.9456, -0.0532845, -0.945, -0.0530673, -0.9438, -0.052633, -0.924, -0.0455846, -0.9, -0.0373642, -0.8988, -0.0369642, -0.8976, -0.0365641, -0.8916, -0.0345874, -0.8844, -0.0322551, -0.8556, -0.0234638, -0.855, -0.0232903, -0.8349, -0.0178074, -0.834, -0.0175787, -0.7953, -0.00915218, -0.7557, -0.00399615, -0.7548, -0.00392041, -0.744, -0.003101, -0.7425, -0.00300046, -0.687, -0.00103736, -0.6576, -0.000652692, -0.6534, -0.000612482, -0.636, -0.000472689, -0.6336, -0.000456037, -0.633, -0.000452072, -0.591, -0.000239569, -0.543, -0.000109996, -0.33, -1.80228e-06, -0.324, -1.57933e-06, -0.315, -1.29224e-06, -0.3135, -1.24856e-06, -0.3102, -1.15891e-06, -0.309, -1.1285e-06, -0.3084, -1.1133e-06, -0.3, -9.18513e-07, -0.2976, -8.69279e-07, -0.297, -8.56971e-07, -0.291, -7.45898e-07, -0.2871, -6.80601e-07, -0.2868, -6.75982e-07, -0.282, -6.0401e-07, -0.2805, -5.82531e-07, -0.2796, -5.70552e-07, -0.279, -5.62565e-07, -0.27, -4.53483e-07, -0.2607, -3.61716e-07, -0.258, -3.38724e-07, -0.2574, -3.33615e-07, -0.255, -3.14671e-07, -0.2436, -2.36902e-07, -0.234, -1.85763e-07, -0.231, -1.72002e-07, -0.2292, -1.64374e-07, -0.204, -8.48285e-08, -0.2013, -7.88547e-08, -0.186, -5.20113e-08, -0.168, -3.13734e-08, -0.1617, -2.61816e-08, -0.117, 0.0, -0.1155, 0.0, -0.003, 0.0, 6.6, 0.0)

V3 PULLUP_REF 0 3.3
B3 DIE PULLUP_REF I={V(Ku)*table(V(DIE), -3.3, -0.0340169, -0.3333000000000004, -0.0340169, -0.3330000000000002, -0.0340169, -0.33000000000000007, -0.0340169, -0.32699999999999996, -0.0340169, -0.08580000000000032, -0.0340169, 0.06599999999999984, -0.0338489, 0.06899999999999995, -0.0338426, 0.24299999999999988, -0.0334523, 0.3503999999999996, -0.0331947, 0.46499999999999986, -0.0329048, 0.5576999999999996, -0.0326578, 0.5579999999999998, -0.032657, 0.8609999999999998, -0.0317532, 0.9041999999999999, -0.0316094, 0.9047999999999998, -0.0316074, 1.1243999999999996, -0.0307905, 1.2569999999999997, -0.0301963, 1.3319999999999999, -0.0298112, 1.3331999999999997, -0.0298047, 1.5119999999999998, -0.0287023, 1.5419999999999998, -0.0284892, 1.6529999999999998, -0.0276255, 1.7459999999999998, -0.0268081, 1.7471999999999999, -0.0267969, 1.7489999999999999, -0.0267802, 1.7508, -0.0267635, 1.9739999999999998, -0.0244334, 2.0316, -0.0237492, 2.0328, -0.0237346, 2.034, -0.02372, 2.049, -0.0235358, 2.199, -0.021567, 2.2008, -0.021542, 2.4276, -0.0181197, 2.4299999999999997, -0.0180807, 2.445, -0.0178352, 2.655, -0.0141546, 2.6565, -0.0141267, 2.658, -0.0140988, 2.8182, -0.0109795, 2.82, -0.0109429, 2.8409999999999997, -0.010514, 2.8775999999999997, -0.00975548, 3.0989999999999998, -0.00487201, 3.1008, -0.00483023, 3.1799999999999997, -0.00295883, 3.2369999999999997, -0.00157188, 3.2988, -3.03029e-05, 3.3, 0.0, 3.63, 0.00850105, 6.6, 0.0850105)}
V4 PULLDOWN_REF 0 0.0
B4 DIE PULLDOWN_REF I={V(Kd)*table(V(DIE), -3.3, -0.125522, -0.153, -0.00581964, 0.0, 0.0, 0.0012, 4.60401e-05, 0.063, 0.00237001, 0.066, 0.00248041, 0.156, 0.00569007, 0.1704, 0.00618547, 0.171, 0.00620602, 0.2574, 0.00907449, 0.3144, 0.0108721, 0.4584, 0.0150887, 0.4587, 0.0150971, 0.459, 0.0151054, 0.462, 0.0151883, 0.483, 0.0157637, 0.4836, 0.01578, 0.6348, 0.0196464, 0.6534, 0.0200895, 0.8184, 0.0237188, 0.819, 0.023731, 0.855, 0.0244523, 0.858, 0.0245113, 1.0056, 0.0272076, 1.0494, 0.0279316, 1.1928, 0.030066, 1.194, 0.0300824, 1.1946, 0.0300906, 1.1964, 0.0301151, 1.242, 0.0307171, 1.2432, 0.0307325, 1.2441, 0.030744, 1.251, 0.0308318, 1.254, 0.0308697, 1.3296, 0.031776, 1.4454, 0.0329827, 1.4664, 0.0331783, 1.467, 0.0331838, 1.578, 0.0341026, 1.6248, 0.0344346, 1.647, 0.0345814, 1.8264, 0.0355476, 1.827, 0.0355503, 1.971, 0.0361092, 2.043, 0.0363389, 2.439, 0.0372563, 2.4528, 0.0372813, 2.835, 0.0378705, 3.231, 0.0383496, 3.627, 0.0387575, 3.63, 0.0387604, 6.6, 0.0411109)}

.model SW SW(Ron=1n Roff=1G Vt=.5 Vh=-.4)


* Setup the Stimulus setting options for the Pullup Waveform (Ku)
V10 OSC 0 {if(stimulus_==1, 1, 0)}
V11 OSC_INV 0 {if(stimulus_==2, 1, 0)}
V12 RISE 0 {if(stimulus_==3, 1, 0)}
V13 FALL 0 {if(stimulus_==4, 1, 0)}
V14 HIGH 0 {if(stimulus_==5, 1, 0)}
V15 LOW 0 {if(stimulus_==6, 1, 0)}
S1 Ku K_U_OSC OSC 0 SW
S2 Ku K_U_OSC_INV OSC_INV 0 SW
S3 Ku K_U_RISE RISE 0 SW
S4 Ku K_U_FALL FALL 0 SW
S5 Ku K_U_HIGH HIGH 0 SW
S6 Ku K_U_LOW LOW 0 SW

* Setup the Stimulus setting options for the Pulldown Waveform (Kd)
S7 Kd K_D_OSC OSC 0 SW
S8 Kd K_D_OSC_INV OSC_INV 0 SW
S9 Kd K_D_RISE RISE 0 SW
S10 Kd K_D_FALL FALL 0 SW
S11 Kd K_D_HIGH HIGH 0 SW
S12 Kd K_D_LOW LOW 0 SW

* Define Oscillation Sources
.param calc_gap_pos = {(duty/freq) - 5.2e-09 - 5.75e-10}
.param calc_gap_neg = {((1-duty)/freq) - 7.9e-09 - 3.75e-10}

.param GAP_POS = {if(calc_gap_pos <= 0, 0.1e-12, calc_gap_pos)}
.param GAP_NEG = {if(calc_gap_neg <= 0, 0.1e-12, calc_gap_neg)}

.param stimulus_ = {if(stimulus < 1, 1, if(stimulus > 7, 7, stimulus)}

V16 K_U_OSC 0 PWL REPEAT FOREVER (0 -0.03901595939269813 +0.01e-12 -0.03901595939269813 +2.5e-11 -0.07615750467843949 +2.5e-11 -0.0746813723123069 +2.4999999999999998e-11 -0.0712613456943554 +2.5000000000000004e-11 -0.06074946698576396 +2.5000000000000004e-11 -0.06246083021859278 +2.499999999999999e-11 -0.05446482697006687 +2.499999999999999e-11 -0.050171004095953604 +2.5000000000000017e-11 -0.04829803257477559 +2.499999999999999e-11 -0.04393187588455736 +2.5000000000000017e-11 -0.03776776400752659 +2.4999999999999965e-11 -0.02776563710239657 +2.5000000000000017e-11 -0.018847356545305484 +2.5000000000000017e-11 -0.008812049944066966 +2.4999999999999965e-11 0.006711654059567488 +2.5000000000000017e-11 0.021197447904514184 +2.5000000000000017e-11 0.036923363897418904 +2.4999999999999965e-11 0.06272472749363674 +2.5000000000000017e-11 0.07419951096563089 +2.5000000000000017e-11 0.10156059096847413 +2.5000000000000017e-11 0.1305081134815208 +2.5000000000000017e-11 0.1464958642118941 +2.4999999999999914e-11 0.17539619985824248 +2.5000000000000017e-11 0.20794340608958548 +2.5000000000000017e-11 0.229279806873963 +2.5000000000000017e-11 0.26497857282010373 +2.5000000000000017e-11 0.28806725011352363 +2.5000000000000017e-11 0.3123618613663846 +2.4999999999999914e-11 0.3411254092670911 +2.5000000000000017e-11 0.37104705793725573 +2.5000000000000017e-11 0.40233588343675214 +2.5000000000000017e-11 0.4351032710386941 +2.5000000000000017e-11 0.46948049025887256 +2.5000000000000017e-11 0.48426885900317435 +2.4999999999999914e-11 0.5038766318934342 +2.5000000000000017e-11 0.528030232068059 +2.5000000000000017e-11 0.5534124829716925 +2.5000000000000017e-11 0.5776590718233457 +2.5000000000000017e-11 0.6043530619167966 +5.0000000000000034e-11 0.6551649181951287 +2.5000000000000017e-11 0.6829338964477789 +2.5000000000000017e-11 0.7082781466581619 +2.499999999999981e-11 0.7115072954140347 +2.5000000000000017e-11 0.7293427387646785 +2.5000000000000017e-11 0.7465474761036828 +2.5000000000000017e-11 0.7613084819404561 +2.5000000000000017e-11 0.782122048814401 +2.5000000000000017e-11 0.7954033849158617 +2.5000000000000017e-11 0.8104052095257772 +2.5000000000000017e-11 0.8251079526457658 +2.5000000000000017e-11 0.8385655090440124 +2.5000000000000017e-11 0.8491326222879427 +2.5000000000000017e-11 0.8665829083525706 +2.5000000000000017e-11 0.8697908022446155 +2.499999999999981e-11 0.8829353384233565 +7.500000000000005e-11 0.9138400762258293 +2.5000000000000017e-11 0.9213324842616631 +2.5000000000000017e-11 0.9279615406482338 +2.5000000000000017e-11 0.9288019876175001 +2.5000000000000017e-11 0.9378795276210435 +5.0000000000000034e-11 0.941039001474338 +2.2499999999999995e-10 0.986291322986741 +4.999999999999983e-11 0.9876753063849489 +7.500000000000026e-11 0.9890330428346723 +5.0000000000000034e-11 0.9878547828575499 +2.499999999999981e-11 0.9952358203551405 +5.0000000000000034e-11 0.9994349679538758 +1.0000000000000007e-10 1.0025545478403868 +1.500000000000001e-10 1.0052587313604473 +2.499999999999981e-11 1.0022353581677104 +1.500000000000001e-10 1.0031945116173366 +1.749999999999999e-10 1.0041626775239292 +2.5000000000000224e-11 1.0029689578159835 +2.499999999999981e-11 1.0029444894960697 +2.499999999999981e-11 1.0028201411863622 +7.500000000000026e-11 1.002502533268867 +1.2499999999999988e-10 1.0013697060214677 +3.7500000000000005e-10 0.9984076435440851 +5.0000000000000034e-11 0.9981216212011196 +1.0000000000000007e-10 0.9974578823215416 +7.499999999999984e-11 0.9971178936228162 +5.749999999999998e-10 0.9943979571875485 +2.5000000000000224e-11 0.9945419500673703 +5.000000000000045e-11 0.9944644020494114 +1.1749999999999998e-09 0.9928212138239496 +2.0000000000000014e-10 0.992719223075659 +{GAP_POS} 0.992719223075659 +0.0 1.0031600056555088 +2.5e-11 0.9549246781737094 +2.5e-11 0.9004821137934199 +2.4999999999999998e-11 0.8466017258601631 +2.5000000000000004e-11 0.7903595897037412 +2.5000000000000004e-11 0.7364762607026334 +2.499999999999999e-11 0.680288112685871 +2.499999999999999e-11 0.6276357488201727 +2.5000000000000017e-11 0.5835791773884129 +2.499999999999999e-11 0.5330367369867977 +2.5000000000000017e-11 0.4859115545017395 +2.4999999999999965e-11 0.449091240660861 +2.5000000000000017e-11 0.40614631299784026 +2.5000000000000017e-11 0.36377643166302875 +2.4999999999999965e-11 0.3314558393297975 +2.5000000000000017e-11 0.29471134232959234 +2.5000000000000017e-11 0.2582761723557488 +2.4999999999999965e-11 0.230490905643212 +2.5000000000000017e-11 0.2007701734899945 +2.5000000000000017e-11 0.17212053126875618 +2.5000000000000017e-11 0.13706615833214023 +2.5000000000000017e-11 0.12813483735115114 +2.4999999999999914e-11 0.11507201857064871 +2.5000000000000017e-11 0.09479519276678298 +2.5000000000000017e-11 0.07940269967363116 +2.5000000000000017e-11 0.06347058844914176 +2.5000000000000017e-11 0.05577939251022207 +2.5000000000000017e-11 0.04907328466581336 +2.4999999999999914e-11 0.04143575172898394 +2.5000000000000017e-11 0.035444409936963225 +2.5000000000000017e-11 0.03146053585837004 +2.5000000000000017e-11 0.02786877565655865 +2.5000000000000017e-11 0.02721440757735829 +4.999999999999993e-11 0.00034719296487154173 +2.5000000000000017e-11 -0.0037393306512645635 +2.5000000000000017e-11 -0.007614831807906322 +2.5000000000000017e-11 -0.009820399540622698 +2.5000000000000017e-11 -0.006176901764504733 +5.0000000000000034e-11 -0.00552241855061307 +2.5000000000000017e-11 6.190736851454833e-05 +2.5000000000000017e-11 0.00797289218984918 +2.499999999999981e-11 -0.012537417281958146 +2.5000000000000017e-11 -0.013802266832846966 +2.5000000000000017e-11 -0.01759973294279349 +2.5000000000000017e-11 -0.017810752191609748 +2.5000000000000017e-11 -0.016985487698443852 +5.0000000000000034e-11 -0.016824621876757914 +2.5000000000000017e-11 -0.014991282485594642 +2.5000000000000017e-11 -0.012310009802890305 +2.5000000000000017e-11 -0.008750034475111166 +2.5000000000000017e-11 -0.003835283789377721 +4.999999999999983e-11 -0.006091884177262849 +2.5000000000000017e-11 -0.005945154686394833 +2.5000000000000017e-11 -0.00577740180757737 +7.500000000000005e-11 -0.005290105780292973 +2.5000000000000017e-11 -0.003932448245575508 +2.5000000000000017e-11 -0.002409055911747002 +2.5000000000000017e-11 -0.0014086100589748767 +5.0000000000000034e-11 0.0006436177713828149 +4.999999999999983e-11 0.0010200055292212593 +5.0000000000000034e-11 0.0016583287630371518 +2.5000000000000017e-11 0.0016951207773172935 +7.500000000000005e-11 0.0023536042014337495 +2.5000000000000017e-11 0.0025740417989232713 +2.499999999999981e-11 0.002795183865575733 +2.5000000000000224e-11 0.002701885528576796 +2.499999999999981e-11 0.002625547380582815 +2.0000000000000014e-10 0.002819885930629323 +2.499999999999981e-11 0.0027848152093387234 +5.0000000000000034e-11 0.002730044062164988 +2.5000000000000224e-11 0.0026229404717636896 +7.499999999999984e-11 0.0022656372938709207 +5.0000000000000034e-11 0.00197190310250207 +1.500000000000001e-10 0.001322393999444579 +2.499999999999981e-11 0.0012689054953151375 +2.75e-10 0.0007031025138778681 +1.0000000000000007e-10 0.0004919193540865416 +2.5000000000000017e-10 5.995699831179003e-05 +1.2499999999999988e-10 1.668572840649098e-05 +2.5000000000000224e-11 8.009174090533634e-06 +2.499999999999981e-11 -6.826058199297028e-07 +2.5000000000000017e-10 -8.714955514215508e-05 +4.749999999999997e-10 -0.00025119820237019184 +7.499999999999984e-11 -0.0002522350727585856 +2.0000000000000014e-10 -0.00023097465521332565 +7.750000000000003e-10 -0.00014860255379652747 +2.5000000000000224e-11 -0.00014594919185142234 +1.1249999999999993e-09 -3.2718190885010375e-05 +2.5000000000000224e-11 -3.271966531218922e-05 +2.2e-09 -3.2689824547994646e-05 +{GAP_NEG} -3.2689824547994646e-05) ENDREPEAT
V17 K_U_HIGH 0 1
V18 K_U_LOW 0 0
V19 K_U_OSC_INV 0 PWL REPEAT FOREVER (0 1.0031600056555088 +0.01e-12 1.0031600056555088 +2.5e-11 0.9549246781737094 +2.5e-11 0.9004821137934199 +2.4999999999999998e-11 0.8466017258601631 +2.5000000000000004e-11 0.7903595897037412 +2.5000000000000004e-11 0.7364762607026334 +2.499999999999999e-11 0.680288112685871 +2.499999999999999e-11 0.6276357488201727 +2.5000000000000017e-11 0.5835791773884129 +2.499999999999999e-11 0.5330367369867977 +2.5000000000000017e-11 0.4859115545017395 +2.4999999999999965e-11 0.449091240660861 +2.5000000000000017e-11 0.40614631299784026 +2.5000000000000017e-11 0.36377643166302875 +2.4999999999999965e-11 0.3314558393297975 +2.5000000000000017e-11 0.29471134232959234 +2.5000000000000017e-11 0.2582761723557488 +2.4999999999999965e-11 0.230490905643212 +2.5000000000000017e-11 0.2007701734899945 +2.5000000000000017e-11 0.17212053126875618 +2.5000000000000017e-11 0.13706615833214023 +2.5000000000000017e-11 0.12813483735115114 +2.4999999999999914e-11 0.11507201857064871 +2.5000000000000017e-11 0.09479519276678298 +2.5000000000000017e-11 0.07940269967363116 +2.5000000000000017e-11 0.06347058844914176 +2.5000000000000017e-11 0.05577939251022207 +2.5000000000000017e-11 0.04907328466581336 +2.4999999999999914e-11 0.04143575172898394 +2.5000000000000017e-11 0.035444409936963225 +2.5000000000000017e-11 0.03146053585837004 +2.5000000000000017e-11 0.02786877565655865 +2.5000000000000017e-11 0.02721440757735829 +4.999999999999993e-11 0.00034719296487154173 +2.5000000000000017e-11 -0.0037393306512645635 +2.5000000000000017e-11 -0.007614831807906322 +2.5000000000000017e-11 -0.009820399540622698 +2.5000000000000017e-11 -0.006176901764504733 +5.0000000000000034e-11 -0.00552241855061307 +2.5000000000000017e-11 6.190736851454833e-05 +2.5000000000000017e-11 0.00797289218984918 +2.499999999999981e-11 -0.012537417281958146 +2.5000000000000017e-11 -0.013802266832846966 +2.5000000000000017e-11 -0.01759973294279349 +2.5000000000000017e-11 -0.017810752191609748 +2.5000000000000017e-11 -0.016985487698443852 +5.0000000000000034e-11 -0.016824621876757914 +2.5000000000000017e-11 -0.014991282485594642 +2.5000000000000017e-11 -0.012310009802890305 +2.5000000000000017e-11 -0.008750034475111166 +2.5000000000000017e-11 -0.003835283789377721 +4.999999999999983e-11 -0.006091884177262849 +2.5000000000000017e-11 -0.005945154686394833 +2.5000000000000017e-11 -0.00577740180757737 +7.500000000000005e-11 -0.005290105780292973 +2.5000000000000017e-11 -0.003932448245575508 +2.5000000000000017e-11 -0.002409055911747002 +2.5000000000000017e-11 -0.0014086100589748767 +5.0000000000000034e-11 0.0006436177713828149 +4.999999999999983e-11 0.0010200055292212593 +5.0000000000000034e-11 0.0016583287630371518 +2.5000000000000017e-11 0.0016951207773172935 +7.500000000000005e-11 0.0023536042014337495 +2.5000000000000017e-11 0.0025740417989232713 +2.499999999999981e-11 0.002795183865575733 +2.5000000000000224e-11 0.002701885528576796 +2.499999999999981e-11 0.002625547380582815 +2.0000000000000014e-10 0.002819885930629323 +2.499999999999981e-11 0.0027848152093387234 +5.0000000000000034e-11 0.002730044062164988 +2.5000000000000224e-11 0.0026229404717636896 +7.499999999999984e-11 0.0022656372938709207 +5.0000000000000034e-11 0.00197190310250207 +1.500000000000001e-10 0.001322393999444579 +2.499999999999981e-11 0.0012689054953151375 +2.75e-10 0.0007031025138778681 +1.0000000000000007e-10 0.0004919193540865416 +2.5000000000000017e-10 5.995699831179003e-05 +1.2499999999999988e-10 1.668572840649098e-05 +2.5000000000000224e-11 8.009174090533634e-06 +2.499999999999981e-11 -6.826058199297028e-07 +2.5000000000000017e-10 -8.714955514215508e-05 +4.749999999999997e-10 -0.00025119820237019184 +7.499999999999984e-11 -0.0002522350727585856 +2.0000000000000014e-10 -0.00023097465521332565 +7.750000000000003e-10 -0.00014860255379652747 +2.5000000000000224e-11 -0.00014594919185142234 +1.1249999999999993e-09 -3.2718190885010375e-05 +2.5000000000000224e-11 -3.271966531218922e-05 +2.2e-09 -3.2689824547994646e-05 +{GAP_POS} -3.2689824547994646e-05 +0.0 -0.03901595939269813 +2.5e-11 -0.07615750467843949 +2.5e-11 -0.0746813723123069 +2.4999999999999998e-11 -0.0712613456943554 +2.5000000000000004e-11 -0.06074946698576396 +2.5000000000000004e-11 -0.06246083021859278 +2.499999999999999e-11 -0.05446482697006687 +2.499999999999999e-11 -0.050171004095953604 +2.5000000000000017e-11 -0.04829803257477559 +2.499999999999999e-11 -0.04393187588455736 +2.5000000000000017e-11 -0.03776776400752659 +2.4999999999999965e-11 -0.02776563710239657 +2.5000000000000017e-11 -0.018847356545305484 +2.5000000000000017e-11 -0.008812049944066966 +2.4999999999999965e-11 0.006711654059567488 +2.5000000000000017e-11 0.021197447904514184 +2.5000000000000017e-11 0.036923363897418904 +2.4999999999999965e-11 0.06272472749363674 +2.5000000000000017e-11 0.07419951096563089 +2.5000000000000017e-11 0.10156059096847413 +2.5000000000000017e-11 0.1305081134815208 +2.5000000000000017e-11 0.1464958642118941 +2.4999999999999914e-11 0.17539619985824248 +2.5000000000000017e-11 0.20794340608958548 +2.5000000000000017e-11 0.229279806873963 +2.5000000000000017e-11 0.26497857282010373 +2.5000000000000017e-11 0.28806725011352363 +2.5000000000000017e-11 0.3123618613663846 +2.4999999999999914e-11 0.3411254092670911 +2.5000000000000017e-11 0.37104705793725573 +2.5000000000000017e-11 0.40233588343675214 +2.5000000000000017e-11 0.4351032710386941 +2.5000000000000017e-11 0.46948049025887256 +2.5000000000000017e-11 0.48426885900317435 +2.4999999999999914e-11 0.5038766318934342 +2.5000000000000017e-11 0.528030232068059 +2.5000000000000017e-11 0.5534124829716925 +2.5000000000000017e-11 0.5776590718233457 +2.5000000000000017e-11 0.6043530619167966 +5.0000000000000034e-11 0.6551649181951287 +2.5000000000000017e-11 0.6829338964477789 +2.5000000000000017e-11 0.7082781466581619 +2.499999999999981e-11 0.7115072954140347 +2.5000000000000017e-11 0.7293427387646785 +2.5000000000000017e-11 0.7465474761036828 +2.5000000000000017e-11 0.7613084819404561 +2.5000000000000017e-11 0.782122048814401 +2.5000000000000017e-11 0.7954033849158617 +2.5000000000000017e-11 0.8104052095257772 +2.5000000000000017e-11 0.8251079526457658 +2.5000000000000017e-11 0.8385655090440124 +2.5000000000000017e-11 0.8491326222879427 +2.5000000000000017e-11 0.8665829083525706 +2.5000000000000017e-11 0.8697908022446155 +2.499999999999981e-11 0.8829353384233565 +7.500000000000005e-11 0.9138400762258293 +2.5000000000000017e-11 0.9213324842616631 +2.5000000000000017e-11 0.9279615406482338 +2.5000000000000017e-11 0.9288019876175001 +2.5000000000000017e-11 0.9378795276210435 +5.0000000000000034e-11 0.941039001474338 +2.2499999999999995e-10 0.986291322986741 +4.999999999999983e-11 0.9876753063849489 +7.500000000000026e-11 0.9890330428346723 +5.0000000000000034e-11 0.9878547828575499 +2.499999999999981e-11 0.9952358203551405 +5.0000000000000034e-11 0.9994349679538758 +1.0000000000000007e-10 1.0025545478403868 +1.500000000000001e-10 1.0052587313604473 +2.499999999999981e-11 1.0022353581677104 +1.500000000000001e-10 1.0031945116173366 +1.749999999999999e-10 1.0041626775239292 +2.5000000000000224e-11 1.0029689578159835 +2.499999999999981e-11 1.0029444894960697 +2.499999999999981e-11 1.0028201411863622 +7.500000000000026e-11 1.002502533268867 +1.2499999999999988e-10 1.0013697060214677 +3.7500000000000005e-10 0.9984076435440851 +5.0000000000000034e-11 0.9981216212011196 +1.0000000000000007e-10 0.9974578823215416 +7.499999999999984e-11 0.9971178936228162 +5.749999999999998e-10 0.9943979571875485 +2.5000000000000224e-11 0.9945419500673703 +5.000000000000045e-11 0.9944644020494114 +1.1749999999999998e-09 0.9928212138239496 +2.0000000000000014e-10 0.992719223075659 +{GAP_NEG} 0.992719223075659) ENDREPEAT
V20 K_U_RISE 0 PWL({delay}, -0.03901595939269813, {delay+2.5e-11}, -0.07615750467843949, {delay+5e-11}, -0.0746813723123069, {delay+7.5e-11}, -0.0712613456943554, {delay+1e-10}, -0.06074946698576396, {delay+1.25e-10}, -0.06246083021859278, {delay+1.5e-10}, -0.05446482697006687, {delay+1.75e-10}, -0.050171004095953604, {delay+2e-10}, -0.04829803257477559, {delay+2.25e-10}, -0.04393187588455736, {delay+2.5e-10}, -0.03776776400752659, {delay+2.75e-10}, -0.02776563710239657, {delay+3e-10}, -0.018847356545305484, {delay+3.25e-10}, -0.008812049944066966, {delay+3.5e-10}, 0.006711654059567488, {delay+3.75e-10}, 0.021197447904514184, {delay+4e-10}, 0.036923363897418904, {delay+4.25e-10}, 0.06272472749363674, {delay+4.5e-10}, 0.07419951096563089, {delay+4.75e-10}, 0.10156059096847413, {delay+5e-10}, 0.1305081134815208, {delay+5.25e-10}, 0.1464958642118941, {delay+5.5e-10}, 0.17539619985824248, {delay+5.75e-10}, 0.20794340608958548, {delay+6e-10}, 0.229279806873963, {delay+6.25e-10}, 0.26497857282010373, {delay+6.5e-10}, 0.28806725011352363, {delay+6.75e-10}, 0.3123618613663846, {delay+7e-10}, 0.3411254092670911, {delay+7.25e-10}, 0.37104705793725573, {delay+7.5e-10}, 0.40233588343675214, {delay+7.75e-10}, 0.4351032710386941, {delay+8e-10}, 0.46948049025887256, {delay+8.25e-10}, 0.48426885900317435, {delay+8.5e-10}, 0.5038766318934342, {delay+8.75e-10}, 0.528030232068059, {delay+9e-10}, 0.5534124829716925, {delay+9.25e-10}, 0.5776590718233457, {delay+9.5e-10}, 0.6043530619167966, {delay+1e-09}, 0.6551649181951287, {delay+1.025e-09}, 0.6829338964477789, {delay+1.05e-09}, 0.7082781466581619, {delay+1.075e-09}, 0.7115072954140347, {delay+1.1e-09}, 0.7293427387646785, {delay+1.125e-09}, 0.7465474761036828, {delay+1.15e-09}, 0.7613084819404561, {delay+1.175e-09}, 0.782122048814401, {delay+1.2e-09}, 0.7954033849158617, {delay+1.225e-09}, 0.8104052095257772, {delay+1.25e-09}, 0.8251079526457658, {delay+1.275e-09}, 0.8385655090440124, {delay+1.3e-09}, 0.8491326222879427, {delay+1.325e-09}, 0.8665829083525706, {delay+1.35e-09}, 0.8697908022446155, {delay+1.375e-09}, 0.8829353384233565, {delay+1.45e-09}, 0.9138400762258293, {delay+1.475e-09}, 0.9213324842616631, {delay+1.5e-09}, 0.9279615406482338, {delay+1.525e-09}, 0.9288019876175001, {delay+1.55e-09}, 0.9378795276210435, {delay+1.6e-09}, 0.941039001474338, {delay+1.825e-09}, 0.986291322986741, {delay+1.875e-09}, 0.9876753063849489, {delay+1.95e-09}, 0.9890330428346723, {delay+2e-09}, 0.9878547828575499, {delay+2.025e-09}, 0.9952358203551405, {delay+2.075e-09}, 0.9994349679538758, {delay+2.175e-09}, 1.0025545478403868, {delay+2.325e-09}, 1.0052587313604473, {delay+2.35e-09}, 1.0022353581677104, {delay+2.5e-09}, 1.0031945116173366, {delay+2.675e-09}, 1.0041626775239292, {delay+2.7e-09}, 1.0029689578159835, {delay+2.725e-09}, 1.0029444894960697, {delay+2.75e-09}, 1.0028201411863622, {delay+2.825e-09}, 1.002502533268867, {delay+2.95e-09}, 1.0013697060214677, {delay+3.325e-09}, 0.9984076435440851, {delay+3.375e-09}, 0.9981216212011196, {delay+3.475e-09}, 0.9974578823215416, {delay+3.55e-09}, 0.9971178936228162, {delay+4.125e-09}, 0.9943979571875485, {delay+4.15e-09}, 0.9945419500673703, {delay+4.2e-09}, 0.9944644020494114, {delay+5.375e-09}, 0.9928212138239496, {delay+5.575e-09}, 0.992719223075659)