*********************************************************************
*
* IBIS filename: sn74lv1t34.ibs
* Component: SN74LV1T34DBV
* Model: output_3p3
* Model Type: 3-state
* Corner: FastStrong
* Voltage Range (V): [3.3 3.0 3.6] (Typ, Min, Max)
* Temperature Range (degC): [40.0 -40.0 140.0] (Typ, Min, Max)
* SPICE subcircuit model created with pybis2spice version 1.0
* For more info, visit https://github.com/kamratia1/pybis2spice/
*
* Note: This model may only work in LTSpice.
* Stimulus Options: 
*	1 - Oscillate at given freq and duty
*	2 - Inverted Oscillate at given freq and duty
*	3 - Rising Edge with delay
*	4 - Falling Edge with delay
*	5 - Stuck High
*	6 - Stuck Low
*	7 - HighZ (if 3-State output)

*********************************************************************

.SUBCKT output_3p3-Output-FastStrong OUT params: stimulus=1 freq=10Meg duty=0.5 delay=0 

.param C_pkg = 2.7952e-13
.param L_pkg = 2.04843e-09
.param R_pkg = 0.07001
.param C_comp = 3.305e-12

R1 OUT MID {R_pkg}
L1 DIE MID {L_pkg}
C1 OUT 0 {C_pkg}
C2 DIE 0 {C_comp}

V1 PWR_CLAMP_REF 0 3.6
B1 DIE PWR_CLAMP_REF I = table(V(DIE), -2.9999999999999996, 0.0, 1.9824000000000002, 0.0, 2.349, 1.02269e-08, 2.4972000000000003, 1.42897e-08, 2.7168, 2.25507e-08, 2.745, 2.38375e-08, 2.9184, 3.30622e-08, 2.919, 3.30984e-08, 2.9202000000000004, 3.31708e-08, 2.922, 3.32794e-08, 3.141, 4.87153e-08, 3.1776, 5.17563e-08, 3.414, 7.5047e-08, 3.4152, 7.51824e-08, 3.5307, 8.91499e-08, 3.531, 8.9189e-08, 3.537, 8.99737e-08, 3.5844, 9.66243e-08, 3.5988, 9.8934e-08, 3.599999999999986, 9.91371e-08, 3.600000000000034, 9.91371e-08, 3.6024000000000003, 9.95434e-08, 3.603, 9.96471e-08, 3.7551, 1.27351e-07, 3.7560000000000002, 1.27533e-07, 3.7572, 1.27774e-07, 3.8244000000000002, 1.44928e-07, 3.8256, 1.45332e-07, 3.831, 1.4726e-07, 3.8673, 1.64624e-07, 3.8688000000000002, 1.65556e-07, 3.8868, 1.79097e-07, 3.8871, 1.79371e-07, 3.9003, 1.92674e-07, 3.9012000000000002, 1.93682e-07, 3.9156, 2.13024e-07, 3.93, 2.38975e-07, 4.2972, 0.000166279, 4.4016, 0.000602929, 4.4118, 0.000664936, 4.491, 0.0012557, 4.5108, 0.00143149, 4.5120000000000005, 0.00144248, 4.5132, 0.00145347, 4.611, 0.00247052, 4.6131, 0.00249478, 4.6572, 0.00302597, 4.6896, 0.00344238, 4.692, 0.00347413, 4.7451, 0.00420676, 4.8045, 0.00509602, 4.8048, 0.00510069, 4.890000000000001, 0.00649609, 4.8903, 0.00650123, 4.9350000000000005, 0.00728381, 4.9596, 0.00772804, 5.1288, 0.0110185, 5.13, 0.0110432, 5.1312, 0.0110679, 5.1324000000000005, 0.0110926, 5.2071000000000005, 0.0126658, 5.208, 0.0126851, 5.2104, 0.0127368, 5.226, 0.0130742, 5.2269000000000005, 0.0130938, 5.229, 0.0131394, 5.3232, 0.0152381, 5.5206, 0.0199382, 5.5212, 0.0199531, 5.5899, 0.0216782, 5.601, 0.021961, 5.7264, 0.0252308, 5.9424, 0.0311644, 5.943, 0.0311814, 5.946, 0.0312663, 5.994, 0.0326341, 5.9958, 0.0326857, 5.9963999999999995, 0.0327029, 5.997, 0.0327201, 6.1728000000000005, 0.0378703, 6.405, 0.0449795, 6.4068000000000005, 0.0450359, 6.426, 0.0456386, 6.4314, 0.0458085, 6.6516, 0.0528778, 6.9, 0.0611666)
V2 GND_CLAMP_REF 0 0.0
B2 DIE GND_CLAMP_REF I = table(V(DIE), -3.3, -1.05379, -2.385, -0.640266, -2.3793, -0.637701, -2.328, -0.614622, -1.695, -0.331672, -1.6944, -0.331406, -1.6896, -0.329279, -1.689, -0.329014, -1.6512, -0.312284, -1.65, -0.311754, -1.23, -0.129011, -1.2276, -0.127996, -1.221, -0.125208, -1.2192, -0.124449, -1.212, -0.121414, -1.0968, -0.0739116, -1.0626, -0.0603953, -1.038, -0.0509519, -1.0032, -0.03817, -1.002, -0.0377461, -0.9999, -0.0370044, -0.9471, -0.020075, -0.9456, -0.0196549, -0.945, -0.0194913, -0.9438, -0.0191641, -0.924, -0.0142203, -0.9, -0.00967993, -0.8988, -0.00949377, -0.8976, -0.00932052, -0.8916, -0.00849217, -0.8844, -0.00763682, -0.8556, -0.00536472, -0.855, -0.00533276, -0.8349, -0.00442222, -0.834, -0.00438757, -0.7953, -0.0032049, -0.7557, -0.00228275, -0.7548, -0.00226382, -0.744, -0.00204514, -0.7425, -0.00201594, -0.687, -0.00110046, -0.6576, -0.000750037, -0.6534, -0.000707428, -0.636, -0.000549025, -0.6336, -0.000529594, -0.633, -0.000524736, -0.591, -0.000263756, -0.543, -0.000107661, -0.33, -6.4109e-07, -0.324, -5.36623e-07, -0.315, -4.0812e-07, -0.3135, -3.89974e-07, -0.3102, -3.52182e-07, -0.309, -3.39084e-07, -0.3084, -3.32536e-07, -0.3, -2.55652e-07, -0.2976, -2.36519e-07, -0.297, -2.32219e-07, -0.291, -1.91411e-07, -0.2871, -1.68494e-07, -0.2868, -1.66762e-07, -0.282, -1.42567e-07, -0.2805, -1.35614e-07, -0.2796, -1.31443e-07, -0.279, -1.28955e-07, -0.27, -9.52371e-08, -0.2607, -6.90776e-08, -0.258, -6.27612e-08, -0.2574, -6.15133e-08, -0.255, -5.65217e-08, -0.2436, -3.74994e-08, -0.234, -2.63759e-08, -0.231, -2.35795e-08, -0.2292, -2.19869e-08, -0.204, 0.0, -0.2013, 0.0, -0.186, 0.0, -0.168, 0.0, -0.1617, 0.0, -0.117, 0.0, -0.1155, 0.0, -0.003, 0.0, 6.6, 0.0)

V3 PULLUP_REF 0 3.6
B3 DIE PULLUP_REF I={V(Ku)*table(V(DIE), -2.9999999999999996, -0.069639, -0.03330000000000011, -0.069639, -0.03299999999999992, -0.0696386, -0.029999999999999805, -0.0696352, -0.02699999999999969, -0.069631, 0.21419999999999995, -0.0686699, 0.3660000000000001, -0.0679416, 0.3690000000000002, -0.0679265, 0.5430000000000001, -0.0669992, 0.6503999999999999, -0.06637, 0.7650000000000001, -0.0656426, 0.8576999999999999, -0.0650058, 0.8580000000000001, -0.0650037, 1.161, -0.0625327, 1.2042000000000002, -0.0621194, 1.2048, -0.0621135, 1.4243999999999999, -0.0596968, 1.557, -0.0579447, 1.6320000000000001, -0.056847, 1.6332, -0.0568288, 1.812, -0.0538879, 1.842, -0.0533498, 1.953, -0.0512466, 2.0460000000000003, -0.049349, 2.0472, -0.0493238, 2.0490000000000004, -0.0492858, 2.0508, -0.0492478, 2.274, -0.0441775, 2.3316, -0.042755, 2.3327999999999998, -0.0427249, 2.334, -0.0426947, 2.349, -0.0423162, 2.499, -0.0383583, 2.5008, -0.0383089, 2.7276000000000002, -0.0317291, 2.73, -0.0316557, 2.745, -0.0311953, 2.955, -0.0244296, 2.9565, -0.0243791, 2.958, -0.0243286, 3.1182, -0.0187638, 3.12, -0.0186994, 3.141, -0.0179442, 3.1776, -0.0166141, 3.399, -0.00819398, 3.4008000000000003, -0.00812293, 3.48, -0.0049544, 3.537, -0.00262401, 3.5988, -5.04412e-05, 3.6, 0.0, 3.93, 0.0140533, 6.9, 0.140533)}
V4 PULLDOWN_REF 0 0.0
B4 DIE PULLDOWN_REF I={V(Kd)*table(V(DIE), -3.3, -0.220761, -0.153, -0.0102353, 0.0, 0.0, 0.0012, 8.31052e-05, 0.063, 0.00426267, 0.066, 0.00446065, 0.156, 0.0101909, 0.1704, 0.0110711, 0.171, 0.0111075, 0.2574, 0.0161802, 0.3144, 0.0193386, 0.4584, 0.0266824, 0.4587, 0.0266967, 0.459, 0.0267111, 0.462, 0.0268547, 0.483, 0.0278492, 0.4836, 0.0278774, 0.6348, 0.034512, 0.6534, 0.0352667, 0.8184, 0.0414007, 0.819, 0.0414212, 0.855, 0.0426286, 0.858, 0.0427272, 1.0056, 0.0471906, 1.0494, 0.0483699, 1.1928, 0.0517522, 1.194, 0.0517772, 1.1946, 0.0517897, 1.1964, 0.0518273, 1.242, 0.0527345, 1.2432, 0.0527574, 1.2441, 0.0527744, 1.251, 0.0529039, 1.254, 0.0529597, 1.3296, 0.0542444, 1.4454, 0.0557775, 1.4664, 0.0560042, 1.467, 0.0560104, 1.578, 0.0569957, 1.6248, 0.0573243, 1.647, 0.0574658, 1.8264, 0.058362, 1.827, 0.0583644, 1.971, 0.058874, 2.043, 0.059086, 2.439, 0.0599696, 2.4528, 0.0599948, 2.835, 0.0606138, 3.231, 0.0611538, 3.627, 0.0616395, 3.63, 0.061643, 6.6, 0.0647485)}

.model SW SW(Ron=1n Roff=1G Vt=.5 Vh=-.4)


* Setup the Stimulus setting options for the Pullup Waveform (Ku)
V10 OSC 0 {if(stimulus_==1, 1, 0)}
V11 OSC_INV 0 {if(stimulus_==2, 1, 0)}
V12 RISE 0 {if(stimulus_==3, 1, 0)}
V13 FALL 0 {if(stimulus_==4, 1, 0)}
V14 HIGH 0 {if(stimulus_==5, 1, 0)}
V15 LOW 0 {if(stimulus_==6, 1, 0)}
S1 Ku K_U_OSC OSC 0 SW
S2 Ku K_U_OSC_INV OSC_INV 0 SW
S3 Ku K_U_RISE RISE 0 SW
S4 Ku K_U_FALL FALL 0 SW
S5 Ku K_U_HIGH HIGH 0 SW
S6 Ku K_U_LOW LOW 0 SW

* Setup the Stimulus setting options for the Pulldown Waveform (Kd)
S7 Kd K_D_OSC OSC 0 SW
S8 Kd K_D_OSC_INV OSC_INV 0 SW
S9 Kd K_D_RISE RISE 0 SW
S10 Kd K_D_FALL FALL 0 SW
S11 Kd K_D_HIGH HIGH 0 SW
S12 Kd K_D_LOW LOW 0 SW

* Define Oscillation Sources
.param calc_gap_pos = {(duty/freq) - 5.375e-09 - 3e-10}
.param calc_gap_neg = {((1-duty)/freq) - 8.175e-09 - 2e-10}

.param GAP_POS = {if(calc_gap_pos <= 0, 0.1e-12, calc_gap_pos)}
.param GAP_NEG = {if(calc_gap_neg <= 0, 0.1e-12, calc_gap_neg)}

.param stimulus_ = {if(stimulus < 1, 1, if(stimulus > 7, 7, stimulus)}

V16 K_U_OSC 0 PWL REPEAT FOREVER (0 -0.036267266626460515 +0.01e-12 -0.036267266626460515 +2.5e-11 -0.05464422996984383 +2.5e-11 -0.053169594488250455 +2.4999999999999998e-11 -0.04618654745853505 +2.5000000000000004e-11 -0.04032982314958974 +2.5000000000000004e-11 -0.036515988565766225 +2.499999999999999e-11 -0.014876816706942566 +2.499999999999999e-11 0.0057015718110229275 +2.5000000000000017e-11 0.041721848866589646 +2.499999999999999e-11 0.07744574416763579 +2.5000000000000017e-11 0.11572218685592585 +2.4999999999999965e-11 0.15759767059090757 +2.5000000000000017e-11 0.20374489547946933 +2.5000000000000017e-11 0.2501097787127764 +2.4999999999999965e-11 0.30430377065217273 +2.5000000000000017e-11 0.354110500496565 +2.5000000000000017e-11 0.3966884941290369 +2.4999999999999965e-11 0.45570481984724087 +2.5000000000000017e-11 0.5019599831112644 +2.5000000000000017e-11 0.5346733391098085 +2.5000000000000017e-11 0.5835825945412121 +2.5000000000000017e-11 0.6349917508051565 +2.4999999999999914e-11 0.6568792930586701 +2.5000000000000017e-11 0.6780698415927575 +2.5000000000000017e-11 0.7243648671349131 +2.5000000000000017e-11 0.7552527502790662 +2.5000000000000017e-11 0.788252550978926 +2.5000000000000017e-11 0.8048154031743875 +2.4999999999999914e-11 0.8274262187628184 +2.5000000000000017e-11 0.8484464371302559 +2.5000000000000017e-11 0.8667033890857158 +2.5000000000000017e-11 0.8813692655408749 +2.5000000000000017e-11 0.9030063093336147 +2.5000000000000017e-11 0.9214835441650361 +2.4999999999999914e-11 0.934726217576695 +2.5000000000000017e-11 0.9432689436190382 +2.5000000000000017e-11 0.948512480060421 +2.5000000000000017e-11 0.9561065946100682 +2.5000000000000017e-11 0.9675039830320024 +5.0000000000000034e-11 0.9814594717296208 +2.5000000000000017e-11 0.99070725129814 +2.5000000000000017e-11 0.9894141958959922 +2.499999999999981e-11 0.9884491082254626 +2.5000000000000017e-11 0.9851380592272265 +2.5000000000000017e-11 0.9926094713198521 +2.5000000000000017e-11 0.9973944714171107 +2.5000000000000017e-11 1.0013306782265698 +2.5000000000000017e-11 1.0015887234040544 +2.5000000000000017e-11 1.0020129633898904 +2.5000000000000017e-11 1.0016359574707436 +2.5000000000000017e-11 1.000496422441061 +2.5000000000000017e-11 0.9973036768310786 +2.5000000000000017e-11 0.9966701128132457 +2.5000000000000017e-11 0.9996633373085001 +2.499999999999981e-11 1.0003555555425965 +7.500000000000005e-11 1.0012440960923155 +2.5000000000000017e-11 1.000930984404185 +2.5000000000000017e-11 1.0004766965429606 +2.5000000000000017e-11 0.9992030122893 +2.5000000000000017e-11 0.9989685808541301 +5.0000000000000034e-11 0.9986924284489266 +2.2499999999999995e-10 0.9967974399583698 +4.999999999999983e-11 0.996154265256847 +7.500000000000026e-11 0.9953660684040433 +5.0000000000000034e-11 0.9952186295174063 +2.499999999999981e-11 0.9951337053465965 +5.0000000000000034e-11 0.9948656581699628 +1.0000000000000007e-10 0.9944200105501806 +1.500000000000001e-10 0.9938488175392588 +2.499999999999981e-11 0.993801938655326 +1.500000000000001e-10 0.9934481760841107 +1.749999999999999e-10 0.9931794300134874 +2.5000000000000224e-11 0.9932322059249158 +2.499999999999981e-11 0.9931910654110006 +2.499999999999981e-11 0.9931797258167495 +7.500000000000026e-11 0.9931185619175422 +1.2499999999999988e-10 0.9930438121860105 +3.7500000000000005e-10 0.99289379848433 +5.0000000000000034e-11 0.992876215148713 +1.0000000000000007e-10 0.992870741397078 +7.499999999999984e-11 0.9928861537281964 +5.749999999999998e-10 0.9930072334049004 +2.5000000000000224e-11 0.9929926461855604 +5.000000000000045e-11 0.99299675287669 +1.1749999999999998e-09 0.9930883486494207 +2.0000000000000014e-10 0.9931011262200107 +{GAP_POS} 0.9931011262200107 +0.0 0.9896377584459018 +2.5e-11 0.9352864721310103 +2.5e-11 0.8738444332099105 +2.4999999999999998e-11 0.8068110357246256 +2.5000000000000004e-11 0.734633358955033 +2.5000000000000004e-11 0.6491285989772028 +2.499999999999999e-11 0.5618656558168738 +2.499999999999999e-11 0.4651576747385855 +2.5000000000000017e-11 0.3986949224441506 +2.499999999999999e-11 0.3264704192913134 +2.5000000000000017e-11 0.26923336382735846 +2.4999999999999965e-11 0.22259233210321852 +2.5000000000000017e-11 0.1690414561160617 +2.5000000000000017e-11 0.1481668045467434 +2.4999999999999965e-11 0.1081164954659927 +2.5000000000000017e-11 0.0894591551664509 +2.5000000000000017e-11 0.09528885478537338 +2.4999999999999965e-11 0.08310320736574771 +2.5000000000000017e-11 0.06760069206624286 +2.5000000000000017e-11 0.05160678728435265 +2.5000000000000017e-11 0.038734820917811136 +2.5000000000000017e-11 0.035247942311499955 +2.4999999999999914e-11 0.011821786759579999 +2.5000000000000017e-11 -0.000587749621775511 +2.5000000000000017e-11 -0.005429002927322067 +2.5000000000000017e-11 -0.002365406646947287 +2.5000000000000017e-11 0.0003774174199838252 +2.5000000000000017e-11 -0.014500522958433376 +2.4999999999999914e-11 -0.017022068496144675 +2.5000000000000017e-11 -0.01656715335614105 +2.5000000000000017e-11 -0.012959675460816871 +2.5000000000000017e-11 -0.006257972722459358 +2.5000000000000017e-11 -0.008640014394455801 +4.999999999999993e-11 -0.007539468139013276 +2.5000000000000017e-11 -0.005922867540469751 +2.5000000000000017e-11 -0.0034638100607510495 +2.5000000000000017e-11 -0.0005067147759105329 +2.5000000000000017e-11 -0.0012018732780807251 +5.0000000000000034e-11 9.758999852450064e-05 +2.5000000000000017e-11 0.0006205942202982739 +2.5000000000000017e-11 0.0010801386707296327 +2.499999999999981e-11 0.001473420544637959 +2.5000000000000017e-11 0.001748346888547405 +2.5000000000000017e-11 0.002100467394401458 +2.5000000000000017e-11 0.002311769792426363 +2.5000000000000017e-11 0.002411953870930826 +5.0000000000000034e-11 0.0025540240892573014 +2.5000000000000017e-11 0.002492450252747221 +2.5000000000000017e-11 0.0023414749865334275 +2.5000000000000017e-11 0.002113343905028526 +2.5000000000000017e-11 0.0019350419916375065 +4.999999999999983e-11 0.0017526236908078047 +2.5000000000000017e-11 0.001681474467533664 +2.5000000000000017e-11 0.0016058604767376762 +7.500000000000005e-11 0.001382846711464849 +2.5000000000000017e-11 0.0012438796978291792 +2.5000000000000017e-11 0.001115118241008647 +2.5000000000000017e-11 0.0009875774107107609 +5.0000000000000034e-11 0.0007392893650395507 +4.999999999999983e-11 0.000574241829960885 +5.0000000000000034e-11 0.00044682137124035223 +2.5000000000000017e-11 0.00040606473022665815 +7.500000000000005e-11 0.00026212279733863527 +2.5000000000000017e-11 0.00021392264716132295 +2.499999999999981e-11 0.0001656909708123142 +2.5000000000000224e-11 0.00013890890964458105 +2.499999999999981e-11 0.00011822522348849334 +2.0000000000000014e-10 -7.981589362497341e-05 +2.499999999999981e-11 -8.641105462663977e-05 +5.0000000000000034e-11 -0.0001059103977457675 +2.5000000000000224e-11 -0.00010707365371332564 +7.499999999999984e-11 -0.00010967814079035205 +5.0000000000000034e-11 -0.00010568600367677846 +1.500000000000001e-10 -9.400160559798914e-05 +2.499999999999981e-11 -9.21722836458807e-05 +2.75e-10 -7.211493319950898e-05 +1.0000000000000007e-10 -6.48154419947017e-05 +2.5000000000000017e-10 -4.758299234478609e-05 +1.2499999999999988e-10 -4.178044880937412e-05 +2.5000000000000224e-11 -4.062130345684088e-05 +2.499999999999981e-11 -3.946120159744317e-05 +2.5000000000000017e-10 -2.7866848697692318e-05 +4.749999999999997e-10 -5.856414902250232e-06 +7.499999999999984e-11 -4.018110242608106e-06 +2.0000000000000014e-10 -3.368834048851675e-06 +7.750000000000003e-10 -8.545277957939688e-07 +2.5000000000000224e-11 -7.734427648025575e-07 +1.1249999999999993e-09 2.8264351125930815e-06 +2.5000000000000224e-11 2.826444370996421e-06 +2.2e-09 2.8267048515659293e-06 +{GAP_NEG} 2.8267048515659293e-06) ENDREPEAT
V17 K_U_HIGH 0 1
V18 K_U_LOW 0 0
V19 K_U_OSC_INV 0 PWL REPEAT FOREVER (0 0.9896377584459018 +0.01e-12 0.9896377584459018 +2.5e-11 0.9352864721310103 +2.5e-11 0.8738444332099105 +2.4999999999999998e-11 0.8068110357246256 +2.5000000000000004e-11 0.734633358955033 +2.5000000000000004e-11 0.6491285989772028 +2.499999999999999e-11 0.5618656558168738 +2.499999999999999e-11 0.4651576747385855 +2.5000000000000017e-11 0.3986949224441506 +2.499999999999999e-11 0.3264704192913134 +2.5000000000000017e-11 0.26923336382735846 +2.4999999999999965e-11 0.22259233210321852 +2.5000000000000017e-11 0.1690414561160617 +2.5000000000000017e-11 0.1481668045467434 +2.4999999999999965e-11 0.1081164954659927 +2.5000000000000017e-11 0.0894591551664509 +2.5000000000000017e-11 0.09528885478537338 +2.4999999999999965e-11 0.08310320736574771 +2.5000000000000017e-11 0.06760069206624286 +2.5000000000000017e-11 0.05160678728435265 +2.5000000000000017e-11 0.038734820917811136 +2.5000000000000017e-11 0.035247942311499955 +2.4999999999999914e-11 0.011821786759579999 +2.5000000000000017e-11 -0.000587749621775511 +2.5000000000000017e-11 -0.005429002927322067 +2.5000000000000017e-11 -0.002365406646947287 +2.5000000000000017e-11 0.0003774174199838252 +2.5000000000000017e-11 -0.014500522958433376 +2.4999999999999914e-11 -0.017022068496144675 +2.5000000000000017e-11 -0.01656715335614105 +2.5000000000000017e-11 -0.012959675460816871 +2.5000000000000017e-11 -0.006257972722459358 +2.5000000000000017e-11 -0.008640014394455801 +4.999999999999993e-11 -0.007539468139013276 +2.5000000000000017e-11 -0.005922867540469751 +2.5000000000000017e-11 -0.0034638100607510495 +2.5000000000000017e-11 -0.0005067147759105329 +2.5000000000000017e-11 -0.0012018732780807251 +5.0000000000000034e-11 9.758999852450064e-05 +2.5000000000000017e-11 0.0006205942202982739 +2.5000000000000017e-11 0.0010801386707296327 +2.499999999999981e-11 0.001473420544637959 +2.5000000000000017e-11 0.001748346888547405 +2.5000000000000017e-11 0.002100467394401458 +2.5000000000000017e-11 0.002311769792426363 +2.5000000000000017e-11 0.002411953870930826 +5.0000000000000034e-11 0.0025540240892573014 +2.5000000000000017e-11 0.002492450252747221 +2.5000000000000017e-11 0.0023414749865334275 +2.5000000000000017e-11 0.002113343905028526 +2.5000000000000017e-11 0.0019350419916375065 +4.999999999999983e-11 0.0017526236908078047 +2.5000000000000017e-11 0.001681474467533664 +2.5000000000000017e-11 0.0016058604767376762 +7.500000000000005e-11 0.001382846711464849 +2.5000000000000017e-11 0.0012438796978291792 +2.5000000000000017e-11 0.001115118241008647 +2.5000000000000017e-11 0.0009875774107107609 +5.0000000000000034e-11 0.0007392893650395507 +4.999999999999983e-11 0.000574241829960885 +5.0000000000000034e-11 0.00044682137124035223 +2.5000000000000017e-11 0.00040606473022665815 +7.500000000000005e-11 0.00026212279733863527 +2.5000000000000017e-11 0.00021392264716132295 +2.499999999999981e-11 0.0001656909708123142 +2.5000000000000224e-11 0.00013890890964458105 +2.499999999999981e-11 0.00011822522348849334 +2.0000000000000014e-10 -7.981589362497341e-05 +2.499999999999981e-11 -8.641105462663977e-05 +5.0000000000000034e-11 -0.0001059103977457675 +2.5000000000000224e-11 -0.00010707365371332564 +7.499999999999984e-11 -0.00010967814079035205 +5.0000000000000034e-11 -0.00010568600367677846 +1.500000000000001e-10 -9.400160559798914e-05 +2.499999999999981e-11 -9.21722836458807e-05 +2.75e-10 -7.211493319950898e-05 +1.0000000000000007e-10 -6.48154419947017e-05 +2.5000000000000017e-10 -4.758299234478609e-05 +1.2499999999999988e-10 -4.178044880937412e-05 +2.5000000000000224e-11 -4.062130345684088e-05 +2.499999999999981e-11 -3.946120159744317e-05 +2.5000000000000017e-10 -2.7866848697692318e-05 +4.749999999999997e-10 -5.856414902250232e-06 +7.499999999999984e-11 -4.018110242608106e-06 +2.0000000000000014e-10 -3.368834048851675e-06 +7.750000000000003e-10 -8.545277957939688e-07 +2.5000000000000224e-11 -7.734427648025575e-07 +1.1249999999999993e-09 2.8264351125930815e-06 +2.5000000000000224e-11 2.826444370996421e-06 +2.2e-09 2.8267048515659293e-06 +{GAP_POS} 2.8267048515659293e-06 +0.0 -0.036267266626460515 +2.5e-11 -0.05464422996984383 +2.5e-11 -0.053169594488250455 +2.4999999999999998e-11 -0.04618654745853505 +2.5000000000000004e-11 -0.04032982314958974 +2.5000000000000004e-11 -0.036515988565766225 +2.499999999999999e-11 -0.014876816706942566 +2.499999999999999e-11 0.0057015718110229275 +2.5000000000000017e-11 0.041721848866589646 +2.499999999999999e-11 0.07744574416763579 +2.5000000000000017e-11 0.11572218685592585 +2.4999999999999965e-11 0.15759767059090757 +2.5000000000000017e-11 0.20374489547946933 +2.5000000000000017e-11 0.2501097787127764 +2.4999999999999965e-11 0.30430377065217273 +2.5000000000000017e-11 0.354110500496565 +2.5000000000000017e-11 0.3966884941290369 +2.4999999999999965e-11 0.45570481984724087 +2.5000000000000017e-11 0.5019599831112644 +2.5000000000000017e-11 0.5346733391098085 +2.5000000000000017e-11 0.5835825945412121 +2.5000000000000017e-11 0.6349917508051565 +2.4999999999999914e-11 0.6568792930586701 +2.5000000000000017e-11 0.6780698415927575 +2.5000000000000017e-11 0.7243648671349131 +2.5000000000000017e-11 0.7552527502790662 +2.5000000000000017e-11 0.788252550978926 +2.5000000000000017e-11 0.8048154031743875 +2.4999999999999914e-11 0.8274262187628184 +2.5000000000000017e-11 0.8484464371302559 +2.5000000000000017e-11 0.8667033890857158 +2.5000000000000017e-11 0.8813692655408749 +2.5000000000000017e-11 0.9030063093336147 +2.5000000000000017e-11 0.9214835441650361 +2.4999999999999914e-11 0.934726217576695 +2.5000000000000017e-11 0.9432689436190382 +2.5000000000000017e-11 0.948512480060421 +2.5000000000000017e-11 0.9561065946100682 +2.5000000000000017e-11 0.9675039830320024 +5.0000000000000034e-11 0.9814594717296208 +2.5000000000000017e-11 0.99070725129814 +2.5000000000000017e-11 0.9894141958959922 +2.499999999999981e-11 0.9884491082254626 +2.5000000000000017e-11 0.9851380592272265 +2.5000000000000017e-11 0.9926094713198521 +2.5000000000000017e-11 0.9973944714171107 +2.5000000000000017e-11 1.0013306782265698 +2.5000000000000017e-11 1.0015887234040544 +2.5000000000000017e-11 1.0020129633898904 +2.5000000000000017e-11 1.0016359574707436 +2.5000000000000017e-11 1.000496422441061 +2.5000000000000017e-11 0.9973036768310786 +2.5000000000000017e-11 0.9966701128132457 +2.5000000000000017e-11 0.9996633373085001 +2.499999999999981e-11 1.0003555555425965 +7.500000000000005e-11 1.0012440960923155 +2.5000000000000017e-11 1.000930984404185 +2.5000000000000017e-11 1.0004766965429606 +2.5000000000000017e-11 0.9992030122893 +2.5000000000000017e-11 0.9989685808541301 +5.0000000000000034e-11 0.9986924284489266 +2.2499999999999995e-10 0.9967974399583698 +4.999999999999983e-11 0.996154265256847 +7.500000000000026e-11 0.9953660684040433 +5.0000000000000034e-11 0.9952186295174063 +2.499999999999981e-11 0.9951337053465965 +5.0000000000000034e-11 0.9948656581699628 +1.0000000000000007e-10 0.9944200105501806 +1.500000000000001e-10 0.9938488175392588 +2.499999999999981e-11 0.993801938655326 +1.500000000000001e-10 0.9934481760841107 +1.749999999999999e-10 0.9931794300134874 +2.5000000000000224e-11 0.9932322059249158 +2.499999999999981e-11 0.9931910654110006 +2.499999999999981e-11 0.9931797258167495 +7.500000000000026e-11 0.9931185619175422 +1.2499999999999988e-10 0.9930438121860105 +3.7500000000000005e-10 0.99289379848433 +5.0000000000000034e-11 0.992876215148713 +1.0000000000000007e-10 0.992870741397078 +7.499999999999984e-11 0.9928861537281964 +5.749999999999998e-10 0.9930072334049004 +2.5000000000000224e-11 0.9929926461855604 +5.000000000000045e-11 0.99299675287669 +1.1749999999999998e-09 0.9930883486494207 +2.0000000000000014e-10 0.9931011262200107 +{GAP_NEG} 0.9931011262200107) ENDREPEAT
V20 K_U_RISE 0 PWL({delay}, -0.036267266626460515, {delay+2.5e-11}, -0.05464422996984383, {delay+5e-11}, -0.053169594488250455, {delay+7.5e-11}, -0.04618654745853505, {delay+1e-10}, -0.04032982314958974, {delay+1.25e-10}, -0.036515988565766225, {delay+1.5e-10}, -0.014876816706942566, {delay+1.75e-10}, 0.0057015718110229275, {delay+2e-10}, 0.041721848866589646, {delay+2.25e-10}, 0.07744574416763579, {delay+2.5e-10}, 0.11572218685592585, {delay+2.75e-10}, 0.15759767059090757, {delay+3e-10}, 0.20374489547946933, {delay+3.25e-10}, 0.2501097787127764, {delay+3.5e-10}, 0.30430377065217273, {delay+3.75e-10}, 0.354110500496565, {delay+4e-10}, 0.3966884941290369, {delay+4.25e-10}, 0.45570481984724087, {delay+4.5e-10}, 0.5019599831112644, {delay+4.75e-10}, 0.5346733391098085, {delay+5e-10}, 0.5835825945412121, {delay+5.25e-10}, 0.6349917508051565, {delay+5.5e-10}, 0.6568792930586701, {delay+5.75e-10}, 0.6780698415927575, {delay+6e-10}, 0.7243648671349131, {delay+6.25e-10}, 0.7552527502790662, {delay+6.5e-10}, 0.788252550978926, {delay+6.75e-10}, 0.8048154031743875, {delay+7e-10}, 0.8274262187628184, {delay+7.25e-10}, 0.8484464371302559, {delay+7.5e-10}, 0.8667033890857158, {delay+7.75e-10}, 0.8813692655408749, {delay+8e-10}, 0.9030063093336147, {delay+8.25e-10}, 0.9214835441650361, {delay+8.5e-10}, 0.934726217576695, {delay+8.75e-10}, 0.9432689436190382, {delay+9e-10}, 0.948512480060421, {delay+9.25e-10}, 0.9561065946100682, {delay+9.5e-10}, 0.9675039830320024, {delay+1e-09}, 0.9814594717296208, {delay+1.025e-09}, 0.99070725129814, {delay+1.05e-09}, 0.9894141958959922, {delay+1.075e-09}, 0.9884491082254626, {delay+1.1e-09}, 0.9851380592272265, {delay+1.125e-09}, 0.9926094713198521, {delay+1.15e-09}, 0.9973944714171107, {delay+1.175e-09}, 1.0013306782265698, {delay+1.2e-09}, 1.0015887234040544, {delay+1.225e-09}, 1.0020129633898904, {delay+1.25e-09}, 1.0016359574707436, {delay+1.275e-09}, 1.000496422441061, {delay+1.3e-09}, 0.9973036768310786, {delay+1.325e-09}, 0.9966701128132457, {delay+1.35e-09}, 0.9996633373085001, {delay+1.375e-09}, 1.0003555555425965, {delay+1.45e-09}, 1.0012440960923155, {delay+1.475e-09}, 1.000930984404185, {delay+1.5e-09}, 1.0004766965429606, {delay+1.525e-09}, 0.9992030122893, {delay+1.55e-09}, 0.9989685808541301, {delay+1.6e-09}, 0.9986924284489266, {delay+1.825e-09}, 0.9967974399583698, {delay+1.875e-09}, 0.996154265256847, {delay+1.95e-09}, 0.9953660684040433, {delay+2e-09}, 0.9952186295174063, {delay+2.025e-09}, 0.9951337053465965, {delay+2.075e-09}, 0.9948656581699628, {delay+2.175e-09}, 0.9944200105501806, {delay+2.325e-09}, 0.9938488175392588, {delay+2.35e-09}, 0.993801938655326, {delay+2.5e-09}, 0.9934481760841107, {delay+2.675e-09}, 0.9931794300134874, {delay+2.7e-09}, 0.9932322059249158, {delay+2.725e-09}, 0.9931910654110006, {delay+2.75e-09}, 0.9931797258167495, {delay+2.825e-09}, 0.9931185619175422, {delay+2.95e-09}, 0.9930438121860105, {delay+3.325e-09}, 0.99289379848433, {delay+3.375e-09}, 0.992876215148713, {delay+3.475e-09}, 0.992870741397078, {delay+3.55e-09}, 0.9928861537281964, {delay+4.125e-09}, 0.9930072334049004, {delay+4.15e-09}, 0.9929926461855604, {delay+4.2e-09}, 0.99299675287669, {delay+5.375e-09}, 0.9930883486494207, {delay+5.575e-09}, 0.9931011262200107)