Version 4
SHEET 1 1856 1444
WIRE -640 -96 -704 -96
WIRE -704 -32 -704 -96
WIRE -880 96 -1008 96
WIRE -704 96 -704 48
WIRE -704 96 -880 96
WIRE -560 96 -704 96
WIRE -320 96 -480 96
WIRE -32 96 -224 96
WIRE 128 96 -32 96
WIRE -320 128 -400 128
WIRE -144 128 -224 128
WIRE -400 176 -400 128
WIRE -144 176 -144 128
WIRE -1904 240 -1904 192
WIRE -1712 240 -1712 192
WIRE -1536 240 -1536 192
WIRE -640 320 -704 320
WIRE -704 384 -704 320
WIRE -1904 400 -1904 320
WIRE -1712 400 -1712 320
WIRE -1536 400 -1536 320
WIRE -896 512 -1024 512
WIRE -704 512 -704 464
WIRE -704 512 -896 512
WIRE -576 512 -704 512
WIRE -336 512 -496 512
WIRE -48 512 -240 512
WIRE 112 512 -48 512
WIRE -336 544 -416 544
WIRE -160 544 -240 544
WIRE -416 592 -416 544
WIRE -160 592 -160 544
WIRE -640 752 -704 752
WIRE -704 800 -704 752
WIRE -896 928 -1040 928
WIRE -704 928 -704 880
WIRE -704 928 -896 928
WIRE -576 928 -704 928
WIRE -320 928 -496 928
WIRE -48 928 -224 928
WIRE 128 928 -48 928
WIRE -320 960 -400 960
WIRE -144 960 -224 960
WIRE -400 1008 -400 960
WIRE -144 1008 -144 960
FLAG -400 176 0
FLAG -144 176 0
FLAG -32 96 rcv_fast
FLAG -48 512 rcv_typ
FLAG -48 928 rcv_slow
FLAG -880 96 src_fast
FLAG -896 512 src_typ
FLAG -896 928 src_slow
FLAG -416 592 0
FLAG -160 592 0
FLAG -400 1008 0
FLAG -144 1008 0
FLAG -1904 400 0
FLAG -1904 192 VCC_MIN
FLAG -1712 400 0
FLAG -1712 192 VCC_TYP
FLAG -1536 400 0
FLAG -1536 192 VCC_MAX
FLAG -640 752 VCC_MIN
FLAG -640 320 VCC_TYP
FLAG -640 -96 VCC_MAX
SYMBOL tline -272 112 R0
SYMATTR InstName T1
SYMATTR Value Td={Td} Z0={Zo}
SYMBOL res -464 80 R90
WINDOW 0 0 56 VBottom 2
WINDOW 3 32 56 VTop 2
SYMATTR InstName R3
SYMATTR Value {Rser}
SYMBOL res -480 496 R90
WINDOW 0 0 56 VBottom 2
WINDOW 3 32 56 VTop 2
SYMATTR InstName R1
SYMATTR Value {Rser}
SYMBOL res -480 912 R90
WINDOW 0 0 56 VBottom 2
WINDOW 3 32 56 VTop 2
SYMATTR InstName R2
SYMATTR Value {Rser}
SYMBOL tline -288 528 R0
SYMATTR InstName T2
SYMATTR Value Td={Td} Z0={Zo}
SYMBOL tline -272 944 R0
SYMATTR InstName T3
SYMATTR Value Td={Td} Z0={Zo}
SYMBOL LVC1G07_XGIN_33-Input-FastStrong 128 32 R0
SYMATTR InstName U2
SYMBOL LVC1G07_XGIN_33-Input-WeakSlow 128 864 R0
SYMATTR InstName U3
SYMBOL LVC1G07_XGIN_33-Input-Typical 112 448 R0
SYMATTR InstName U1
SYMBOL LVC1G07_XGODN_33-Output-FastStrong -1040 128 R0
SYMATTR InstName U4
SYMATTR SpiceLine stimulus={stimulus} freq={freq} duty={duty} delay={delay}
SYMBOL LVC1G07_XGODN_33-Output-Typical -1056 544 R0
SYMATTR InstName U5
SYMATTR SpiceLine stimulus={stimulus} freq={freq} duty={duty} delay={delay}
SYMBOL LVC1G07_XGODN_33-Output-WeakSlow -1072 960 R0
SYMATTR InstName U6
SYMATTR SpiceLine stimulus={stimulus} freq={freq} duty={duty} delay={delay}
SYMBOL res -720 -48 R0
SYMATTR InstName R4
SYMATTR Value {Rpu}
SYMBOL voltage -1904 224 R0
WINDOW 123 0 0 Left 0
WINDOW 39 0 0 Left 0
SYMATTR InstName V1
SYMATTR Value 3
SYMBOL voltage -1712 224 R0
WINDOW 123 0 0 Left 0
WINDOW 39 0 0 Left 0
SYMATTR InstName V2
SYMATTR Value 3.3
SYMBOL voltage -1536 224 R0
WINDOW 123 0 0 Left 0
WINDOW 39 0 0 Left 0
SYMATTR InstName V3
SYMATTR Value 3.6
SYMBOL res -720 368 R0
SYMATTR InstName R5
SYMATTR Value {Rpu}
SYMBOL res -720 784 R0
SYMATTR InstName R6
SYMATTR Value {Rpu}
TEXT 760 1384 Left 2 !.tran 0 1u 0 10p
TEXT 776 328 Left 2 !.param Rser = 1
TEXT 776 392 Left 2 !.param Td = 0.25n
TEXT 776 456 Left 2 !.param Zo = 51
TEXT 784 704 Left 2 !.param stimulus = 1
TEXT 784 768 Left 2 !.param freq = 2Meg
TEXT 784 840 Left 2 !.param duty = 0.5
TEXT 784 904 Left 2 !.param delay=0
TEXT 744 144 Left 3 ;Transmission Line Properties
TEXT 744 200 Left 2 ;Rser - Series Termination resistor value\nTd - Transmission line delay\nZo - Characteristic impedance
TEXT 752 984 Left 2 ;Stimulus Options\n* 1 - Oscillate at given freq and duty\n* 2 - Inverted Oscillate at given freq and duty\n* 3 - Rising Edge with delay\n* 4 - Falling Edge with delay\n* 5 - Stuck High\n* 6 - Stuck Low\n* 7 - HighZ (if 3-State output)
TEXT 752 1320 Left 3 ;Transient Simulation parameters
TEXT 768 624 Left 3 ;Waveform Stimulus
TEXT 776 0 Left 2 !.param Rpu = 1k
TEXT 744 -56 Left 3 ;Other Parameters
RECTANGLE Normal 1360 1424 720 1280 2
RECTANGLE Normal 1360 1232 720 576 2
RECTANGLE Normal 1360 512 720 96 2
RECTANGLE Normal 1360 48 720 -96 2
